<?xml version="1.0" encoding="UTF-8"?>

<!-- generated on 2025-04-27 15:10:23.323422 by randomTrips.py v1_22_0+0002-63e50f52594
<configuration>
    <net-file value="osm.net.xml.gz"/>
    <output-trip-file value="osm.passenger.trips.xml"/>
    <route-file value="osm.passenger.rou.xml"/>
    <prefix value="veh"/>
    <trip-attributes value="departLane=&quot;best&quot;"/>
    <fringe-start-attributes value="departSpeed=&quot;max&quot;"/>
    <vehicle-class value="passenger"/>
    <lanes value="True"/>
    <fringe-factor value="5"/>
    <allow-fringe.min-length value="1000.0"/>
    <via-edge-types value="highway.motorway,highway.motorway_link,highway.trunk_link,highway.primary_link,highway.secondary_link,highway.tertiary_link"/>
    <min-distance value="300.0"/>
    <min-distance.fringe value="10.0"/>
    <remove-loops value="True"/>
    <validate value="True"/>
    <insertion-density value="12.0"/>
</configuration>
-->

<!-- generated on 2025-04-27 15:10:16 by Eclipse SUMO duarouter Version 1.22.0
<duarouterConfiguration xmlns:xsi="http://www.w3.org/2001/XMLSchema-instance" xsi:noNamespaceSchemaLocation="http://sumo.dlr.de/xsd/duarouterConfiguration.xsd">

    <input>
        <net-file value="osm.net.xml.gz"/>
        <route-files value="osm.passenger.trips.xml"/>
    </input>

    <output>
        <output-file value="osm.passenger.rou.xml"/>
        <alternatives-output value="NUL"/>
    </output>

    <processing>
        <remove-loops value="true"/>
    </processing>

    <time>
        <begin value="0.0"/>
        <end value="3600.0"/>
    </time>

    <report>
        <no-warnings value="true"/>
        <ignore-errors value="true"/>
        <no-step-log value="true"/>
    </report>

</duarouterConfiguration>
-->

<routes xmlns:xsi="http://www.w3.org/2001/XMLSchema-instance" xsi:noNamespaceSchemaLocation="http://sumo.dlr.de/xsd/routes_file.xsd">
    <vType id="veh_passenger" vClass="passenger"/>
    <vehicle id="veh0" type="veh_passenger" depart="0.00" departLane="best" departSpeed="max">
        <route edges="13932913#0 -114129394#0 13935217#0 13935217#1 1171874702#0 1171874702#1 1171874702#2 1171874702#3 -13935153#11 -13935153#10 -13935153#7 -13935153#6 -13935153#5 -13935153#4 -13935153#3 -13935153#0 169827281#0 169827281#1 13934177#1 13934177#2 13934177#4 13934177#6 13934177#9 -1290458498#1 -1290458498#0 -1290458497#0"/>
    </vehicle>
    <vehicle id="veh1" type="veh_passenger" depart="0.62" departLane="best">
        <route edges="13933654#7 13933654#8 13933654#9 13933654#10 13933654#11 13933654#12 13934799#0 13934799#1 13934799#2 13934799#3 13934799#4 13934799#5 -13933027#3 -13933027#2 -13933027#1 -13933027#0 13933966#1 13933966#2 13933966#3 13933966#4 13933966#5 -13934527#4 -13934527#3 -13934527#2 -13934527#1 -13934527#0 52155440#0 52155440#1 52155440#2 52155440#3 114018285#0 114018285#1-AddedOnRampEdge 114018285#1 114018285#3 114018285#4 114018285#5 114018285#5-AddedOffRampEdge 114018285#6 114018285#8 114018285#9 114018285#10 114018285#11 114018285#12 114018285#13 -13934798#3 -13934798#2 -13934798#1 -13934798#0 13932838#0 13932838#1 13932838#2 -1012939218#3 -1012939218#2 -1012939218#1 -13932827#3 13934885#0 13934885#1 -13933517#0"/>
    </vehicle>
    <vehicle id="veh2" type="veh_passenger" depart="1.25" departLane="best">
        <route edges="-13933414 107180812#0 107180812#1 107180812#4 169827279#0 169827279#0-AddedOffRampEdge 169827279#2 13935282 952588827#0 952588827#1-AddedOnRampEdge 952588827#1 52282335#2 52282335#3 13935153#0 13935153#1 13935153#4 13935153#5 13935153#6 13935153#7 13935153#8 13935153#11 1171874703#0 1171874703#1 1171874703#3 1171874703#4 1171874699#2 1171874700 13933654#1 13933654#2 13933654#4 13933654#5 13933654#6 13933654#7 13933654#8 13933654#9 13933654#10 13933654#11 13933654#12 13934799#0 13935312#0 13935312#1 13934819 114129409 1171874708#0 1171874708#1 13935041#0 13935041#1 13935041#2 13935041#3 13935041#4 13933687#0 13933687#1 13933687#2 13933687#3 13933687#4 13933689#0 13933689#1 13933689#2 13933689#3 13933689#4 13933194#1 -13933663#12 -13933663#11 -13933663#10 -13933663#9 13933174#0 13933174#1"/>
    </vehicle>
    <vehicle id="veh3" type="veh_passenger" depart="1.87" departLane="best">
        <route edges="13934798#2 13934798#3 114018283#0 114018283#2 114018283#4 114018283#5 114018283#6 114018283#7 114018283#8 114018283#9 114018283#10 114018283#10-AddedOffRampEdge 114018283#11 114018283#12 114018283#13-AddedOnRampEdge 114018283#13 -52155440#3 -52155440#2 -52155440#1 -52155440#0 13934527#0 13934527#1 13934527#2 13934527#3 13934527#4 -13933966#5 -13933966#4 -13933966#3 -13933966#2 -13933966#1 13933027#0 13933027#1 13933027#2 13933027#3 -13934799#5 -13934799#4 -13934799#3 -13934799#2 -13934799#1 13935312#0 13935312#1 13934819 114129409 1171874708#0 1171874708#1 13935041#0 13935041#1 13935041#2 13935041#3 13935041#4 -13934042#8 -13934042#7 -13934042#6 -13934042#5 -13934042#4 -13934042#3 -13934042#2 13932781#3"/>
    </vehicle>
    <vehicle id="veh4" type="veh_passenger" depart="2.49" departLane="best" departSpeed="max">
        <route edges="-13934960 -13933689#2 -13933689#1 -13933689#0 -13933687#4 -13933687#3 -13933687#2 -13933687#1 -13933687#0 -13934042#8 -13934042#7 -13934042#6 -13934042#5 -13934042#4 -13934042#3 -13934042#2 -13934042#1 -13934042#0 -114129394#4 -114129394#3 -114129394#2 -114129394#1 -114129394#0 13935217#0 13935217#1 1171874702#0 1171874702#1 1171874702#2 1171874702#3 -13935153#11 -13935153#10 -13935153#7 -13935153#6 -13935153#5 -13935153#4 -13935153#3 -13935153#0 169827281#0 169827281#1 13934177#1 -1290458514#1 -1290458515"/>
    </vehicle>
    <vehicle id="veh5" type="veh_passenger" depart="3.12" departLane="best">
        <route edges="-13933268#7 -13933268#5 -13930730#1 -13930730#0 -13934773#6 -13934773#5 -13934773#4 -13934773#3 -13934773#2 -13934773#1 -13935153#3 -13935153#0 169827281#0 169827281#1 13934177#1 -1290458514#1 -1290458514#0 1290458513#1"/>
    </vehicle>
    <vehicle id="veh6" type="veh_passenger" depart="3.74" departLane="best" departSpeed="max">
        <route edges="-1290458512#1 -1290458512#0 1290458511#2 13934177#4 13934177#6 13934177#9 13934177#14 13933736#1 -13933163#3 -13933163#2 -13934579#1 -13934767#1 -13933383#3"/>
    </vehicle>
    <vehicle id="veh7" type="veh_passenger" depart="4.37" departLane="best">
        <route edges="13932970#10 13932970#11 13932970#12 1171874699#0 1171874699#1 1171874699#2 1171874700 13933654#1 13933654#2 13933654#4 13933654#5 13933654#6 13933654#7 13933654#8 13933654#9 13933654#10 13933654#11 13933654#12 13934799#0 13934799#1 13934799#2 13934799#3 13934799#4 13934799#5 -13933027#3 -13933027#2 -13933027#1 -13933027#0 13933966#1 13933966#2 13933966#3 13933966#4 13933966#5 -13934527#4 -13934527#3 -13934527#2 -13934527#1 -13934527#0 52155440#0 52155440#1 52155440#2 52155440#3 114018285#0 114018285#1-AddedOnRampEdge 114018285#1 114018285#3 114018285#4 114018285#5 114018285#5-AddedOffRampEdge 114018285#6 114018285#8 114018285#9 -13931883#2"/>
    </vehicle>
    <vehicle id="veh8" type="veh_passenger" depart="4.99" departLane="best" departSpeed="max">
        <route edges="-13933298 13932730#2 13934144#0 13934144#1 13934144#2 114129370#8 114129370#9 114129370#11 114129370#12 13932838#0 13932838#1 13932838#2 13933255#0 13933255#1 13932771#0 13932771#1"/>
    </vehicle>
    <vehicle id="veh9" type="veh_passenger" depart="5.61" departLane="best">
        <route edges="13934007#3 13934967#7 -13932863#1 -13933428#1 -13933369#6 -13933369#5 -13933369#4 13933124#0 13933124#1 13933124#2 -382882201 -52155442#0 -13933027#3 -13933027#2 -13933027#1 -13934545#1 -13934545#0 13933908#7 13933908#8 13933908#9 13933908#10 13933908#14 13933908#17 13933908#20 13933908#21 13933908#22 13933908#23 13933908#24 13933908#25 13933908#26 13933908#27 13933908#28 13933908#29 114129370#1 114129370#3 114129370#4 114129370#5"/>
    </vehicle>
    <vehicle id="veh10" type="veh_passenger" depart="6.24" departLane="best">
        <route edges="-13933966#4 -13933966#3 -13933966#2 -13933966#1 13933027#0 13933027#1 13933027#2 13933027#3 -13934799#5 -13934799#4 -13934799#3 -13934799#2 -13934799#1 -13934799#0 -13933654#12 -13933654#11 -13933654#10 -13933654#9 -13933654#8 -13933654#7 -13933654#6 -13933654#5 -13933654#4 -13933654#2 -13933654#1 1171874701#0 1171874701#2 1171874701#3 1171874701#4 -13932970#12 -13932970#11 -13932970#10 -13932970#9 -13932970#8 -13932970#7 13933315"/>
    </vehicle>
    <vehicle id="veh11" type="veh_passenger" depart="6.86" departLane="best">
        <route edges="-13934302#1 -13934740#9 -13934740#8 -13934740#7 -13934740#6 -13934740#5 -13934740#4 -13931491 -13934585#1 -13934585#0 -114011110#1 -114011110#0 -52155442#0 -13933027#3 -13933027#2 -13933027#1 -13934545#1 -13934545#0 13933908#7 13933908#8 13933908#9 13933908#10 13933908#14 13933908#17 13933908#20 13933908#21 13933908#22 13933908#23 13933908#24 13933908#25 13933908#26 13933908#27 13933908#28 13933908#29 114129370#1 114129370#3 114129370#4 13933921#0 13933921#1 -13933126#0"/>
    </vehicle>
    <vehicle id="veh12" type="veh_passenger" depart="7.48" departLane="best">
        <route edges="13935161#6 -13933083#3 -13933083#2 -13933966#4 -13933966#3 -13933966#2 -13933966#1 -13933964 -13933044#5 -13934731#3 -13934731#2 -13934731#1 -13934731#0"/>
    </vehicle>
    <vehicle id="veh13" type="veh_passenger" depart="8.11" departLane="best">
        <route edges="13932662#3 13934944#5 13934944#6 13934944#7 13934825#0 13934825#4 13934825#7 13934825#9 13934825#10 13934825#11 13932851#0 13932851#2 13932851#3"/>
    </vehicle>
    <vehicle id="veh14" type="veh_passenger" depart="8.73" departLane="best">
        <route edges="13934436#0 13934436#1 13933100#0 13933100#1 13933654#4 13933654#5 13933654#6 13933654#7 13933654#8 13933654#9 13933654#10 13933654#11 13933654#12 13934799#0 13934799#1 13934799#2 13934799#3 13934799#4 13934799#5 -13933027#3 -13933027#2 -13933027#1 -13933027#0 13933966#1 13933966#2 13933966#3 13933966#4 13933966#5 -13934527#4 -13934527#3 -13934527#2 -13934527#1 -13934527#0 52155440#0 52155440#1 52155440#2 52155440#3 114018285#0 114018285#1-AddedOnRampEdge 114018285#1 114018285#3 114018285#4 114018285#5 114018285#5-AddedOffRampEdge 114018285#6 114018285#8 114018285#9 114018285#10 114018285#11 114018285#12 114018285#13 -13934798#3 -13934798#2 -13934798#1 -13934798#0 13932838#0 13932838#1 13932838#2 -1012939218#3 -1012939218#2 -1012939218#1 -13932827#3 -13932827#2 -13932827#1 -13935052 13932841"/>
    </vehicle>
    <vehicle id="veh15" type="veh_passenger" depart="9.36" departLane="best" departSpeed="max">
        <route edges="13933995#0 -13932711#1 -13933689#4 13934927#0 13934927#1 13934927#2 -13932728#7 -13932728#5 -13932728#4 -13932728#2 -13932728#1 13934740#8 13934740#9 13934740#10 13934740#11 13933473#1"/>
    </vehicle>
    <vehicle id="veh16" type="veh_passenger" depart="9.98" departLane="best" departSpeed="max">
        <route edges="-114129394#0 13935217#0 13935217#1 1171874702#0 1171874702#1 1171874702#2 1171874702#3 -13935153#11 -13935153#10 -13935153#7 -13935153#6 -13935153#5 -13935153#4 -13935153#3 -13935153#0 169827281#0 169827281#1 169827281#2 169827281#2-AddedOffRampEdge"/>
    </vehicle>
    <vehicle id="veh17" type="veh_passenger" depart="10.60" departLane="best">
        <route edges="-13934734#8 -13934734#7 -13934734#6 -13934734#5 -13934734#4 -13934734#3 -13933966#2 -13933966#1 13933027#0 13933027#1 13933027#2 13933027#3 52155442#0 52155442#2 -13933124#2 -13933124#1 -13933124#0 13933369#4 13933369#5 13933369#6 13933428#1 13932863#1 13932863#2 13932863#3 13932229"/>
    </vehicle>
    <vehicle id="veh18" type="veh_passenger" depart="11.23" departLane="best">
        <route edges="13934187#0 -13932862#0 -1171874708#0 -114129375 -13934819 -13935312#1 -13935312#0 13934799#1 13934799#2 13934799#3 13934799#4 13934799#5 -13933027#3 -13933027#2 -13933027#1 -13933027#0 13933966#1 13933966#2 13933966#3 13933966#4 13933966#5 -13934527#4 -13934527#3 -13934527#2 -13934527#1 -13934527#0 52155440#0 52155440#1 52155440#2 52155440#3 114018285#0 114018285#1-AddedOnRampEdge 114018285#1 114018285#3 114018285#4 114018285#5 114018285#5-AddedOffRampEdge 114018285#6 114018285#8 114018285#9 114018285#10 114018285#11 114018285#12 114018285#13 -13934798#3 -13934798#2 -13934798#1 -13934798#0 13932838#0 13932838#1 13932838#2 13932838#3 13932838#4 13932945"/>
    </vehicle>
    <vehicle id="veh19" type="veh_passenger" depart="11.85" departLane="best" departSpeed="max">
        <route edges="13934579#0 13934579#1 13933102#0 13933102#1 -13934916#3 -13934916#2 13935231#3 13935231#4 -13934663#1 13935153#1 13935153#4 13935153#5 13935153#6 13935153#7 13935153#8 13935153#11 1171874703#0 1171874703#1 1171874703#3 1171874703#4 1171874699#2 1171874700 13933654#1 13933654#2 13933654#4 13933654#5 13933654#6 13933654#7 13933654#8 13933654#9 13933654#10 13933654#11 13933654#12 13934799#0 13934799#1 13934799#2 13934799#3 13934799#4 13934799#5 52155442#0 52155442#2 -13933124#2 13933179#0 13933179#1 13933179#2 13933179#3 13933179#4 13933179#5 13933179#6 13933179#7 13932724#0"/>
    </vehicle>
    <vehicle id="veh20" type="veh_passenger" depart="12.47" departLane="best" departSpeed="max">
        <route edges="13933194#0 -13933689#4 -13933689#3 -13933689#2 -13933689#1 -13933689#0 -13933687#4 -13933687#3 -13933687#2 -13933687#1 -13933687#0 -13934042#8 -13934042#7 -13934042#6 -13934042#5 -13934042#4 -13934042#3 -13934042#2 -13934042#1 -13934042#0 -114129394#4 -114129394#3 -114129394#2 -13935107#1 -13935107#0 -13935105 -13935101 -13935098#2 -13935098#1 -13931659"/>
    </vehicle>
    <vehicle id="veh21" type="veh_passenger" depart="13.10" departLane="best">
        <route edges="-13933335#3 -13933620#2 -13933620#1 -13933620#0 13934956#1 13934352 13933654#7 13933654#8 13933654#9 13933654#10 13933654#11 13933654#12 13934799#0 13935312#0 13935312#1 13934819 114129409 1171874708#0 1171874708#1 -13933205#8 -13933205#7 -13933205#6 -13933205#5 -13933205#4 -13933205#3 -13933716#2 -13934167#0"/>
    </vehicle>
    <vehicle id="veh22" type="veh_passenger" depart="13.72" departLane="best" departSpeed="max">
        <route edges="-13932459 -13933455#3 -13933455#2 -13933455#1 -13933455#0 -13933663#3 -13933663#2 -13933663#1 -13933663#0 -13933179#10 -13933179#9 -13933179#8 -13933179#7 -13933179#6 -13933179#5 -13933179#4 -13933179#3 -13933179#2 -13933179#1 -13933179#0 13933124#2 -382882201 -52155442#0 -13934799#5 -13934799#4 -13934799#3 -13934799#2 -13934799#1 -13934799#0 -13933654#12 -13933654#11 -13933654#10 -13933654#9 -13933654#8 -13933654#7 -13934352 -13934956#1 13933620#0 13933620#1 13933620#2"/>
    </vehicle>
    <vehicle id="veh23" type="veh_passenger" depart="14.35" departLane="best">
        <route edges="-13932724#1 -13932724#0 -13933179#7 13932728#2 13932728#4 13932728#5 13932728#6 -13934927#2 -13933857#1 -13933857#0 -13934967#4 -13934967#3 -13934967#2 -13934967#1 -13934038#6 -13934038#5"/>
    </vehicle>
    <vehicle id="veh24" type="veh_passenger" depart="14.97" departLane="best">
        <route edges="-13932863#5 -13932863#4 -13932863#3 -13932863#2 -13932863#1 -13932863#0 -13934963#1 -13932862#4 -13934848#0"/>
    </vehicle>
    <vehicle id="veh25" type="veh_passenger" depart="15.59" departLane="best" departSpeed="max">
        <route edges="-13934679 -13934885#0 13932827#3 1012939218#0 1012939218#2 1012939218#3 -13932838#2 -13932838#1 -13932838#0 13934798#0 13934798#1 13934798#2 13934798#3 114018283#0 114018283#2 114018283#4 114018283#5 114018283#6 114018283#7 114018283#8 114018283#9 114018283#10 114018283#10-AddedOffRampEdge 114018283#11 114018283#12 114018283#13-AddedOnRampEdge 114018283#13 -52155440#3 -52155440#2 -52155440#1 -52155440#0 13934527#0 13934527#1 13934527#2 13934527#3 13934527#4 -114129402 114129388#0 114129388#1 -13934585#4 -13934585#3 -13934585#2 13931491 13934740#4 13934740#5 13934740#6 13934740#7 13932728#1 13933179#7 13933179#8 13933179#9 13933179#10 13933663#0 13933663#1 13933663#2 13933663#3 13933455#0 13933455#1"/>
    </vehicle>
    <vehicle id="veh26" type="veh_passenger" depart="16.22" departLane="best">
        <route edges="13933568#1 13932723#2 114018283#10 114018283#10-AddedOffRampEdge 114018283#11 114018283#12 114018283#13-AddedOnRampEdge 114018283#13 -52155440#3 -52155440#2 -52155440#1 -52155440#0 13934527#0 13934527#1 13934527#2 13934527#3 13934527#4 -13933966#5 -13933966#4 -13933966#3 -13933966#2 -13933966#1 13933027#0 13933027#1 13933027#2 13933027#3 -13934799#5 -13934799#4 -13934799#3 -13934799#2 -13934799#1 -13934799#0 -13933654#12 -13933654#11 -13933654#10 -13933654#9 -13933654#8 -13933654#7 -13933654#6 -13933654#5 -13933654#4 -13933654#2 -13933654#1 1171874701#0 1171874702#1 1171874702#2 1171874702#3 -13935153#11 -13935153#10 -13935153#7 -13935153#6 -13935153#5 -13935153#4"/>
    </vehicle>
    <vehicle id="veh27" type="veh_passenger" depart="16.84" departLane="best">
        <route edges="13932963#2 -13934586#1 13934819 114129409 1171874708#0 1171874708#1 13935041#0 13935041#1 13935041#2 13935041#3 13935041#4 -13934042#8 -13934042#7 -13934042#6 -13934042#5 -13934042#4 -13934042#3 -13934042#2 -13934042#1 -13934042#0 -114129394#4 -114129394#3 -114129394#2 -13935107#1 -13935107#0 -13935105 -13932944#7 -13932944#6 13932875#0"/>
    </vehicle>
    <vehicle id="veh28" type="veh_passenger" depart="17.46" departLane="best" departSpeed="max">
        <route edges="-13933055 -114129370#2 -114129370#0 -13933908#28 -13933908#27 -13933908#26 -13933908#25 -13933908#24 -13933908#23 -13933908#22 -13933908#21 -13933908#20 -13933908#19 -13933908#16 -13933908#13 -13933908#9 -13933908#8 -13933908#7 -13933908#6 -13933908#5 -13933908#4 -13933908#3 -13933908#2 -13933908#1 -13933908#0 -13933654#12 -13933654#11 -13933654#10 -13933654#9 -13933654#8 -13933654#7 -13933654#6 -13933654#5 -13933654#4 -13933654#2 -13933654#1 1171874701#0 1171874701#2 1171874701#3 1171874701#4 -13932970#12 -13932970#11 13934581#0 13934581#1 13934581#2 13933461#2"/>
    </vehicle>
    <vehicle id="veh29" type="veh_passenger" depart="18.09" departLane="best">
        <route edges="-13933030#2 -13934734#5 -13934734#4 -13934734#3 -13933966#2 -13933966#1 13933027#0 13933027#1 13933027#2 13933027#3 -13934799#5 -13934799#4 -13934799#3 -13934799#2 -13934799#1 13935312#0 13935312#1 13934819 114129409 1171874708#0 1171874708#1 13935041#0 13935041#1 13935041#2 13935041#3 13934038#1 13934038#2 -13934921#2"/>
    </vehicle>
    <vehicle id="veh30" type="veh_passenger" depart="18.71" departLane="best" departSpeed="max">
        <route edges="52282334#0 114018278#0 114018283#5 114018283#6 114018283#7 114018283#8 114018283#9 114018283#10 114018283#10-AddedOffRampEdge 114018283#11 114018283#12 114018283#13-AddedOnRampEdge 114018283#13 -52155440#3 -52155440#2 -52155440#1 -52155440#0 -13932629#3 -13932629#2 -13935161#5 -13935161#4 13934734#5 13933030#2"/>
    </vehicle>
    <vehicle id="veh31" type="veh_passenger" depart="19.34" departLane="best" departSpeed="max">
        <route edges="1290458496 1290458498#1 -13934177#13 -13934177#8 -13934177#5 -13934177#3 -13934177#1 52282335#2 52282335#3 13935153#0 13935153#1 13935153#4 13935153#5 13935153#6 13935153#7 13935153#8 13935153#11 1171874703#0 1171874703#1 1171874703#3 1171874703#4 1171874699#2 1171874700 13933654#1 13933654#2 13933654#4 13933654#5 13933654#6 13933654#7 13933654#8 13933654#9 13933654#10 13933654#11 13933654#12 13934799#0 13935312#0 13935312#1 13934819 114129409 1171874708#0 1171874708#1 13935041#0 13935041#1 13935041#2 13935041#3 13935041#4 -13934042#8 -13934042#7 -13934042#6 -13934042#5 -13934042#4 -13934042#3 -13934042#2 -13934042#1 -13934042#0 -114129394#4 -114129394#3 -114129394#2 13933205#0"/>
    </vehicle>
    <vehicle id="veh32" type="veh_passenger" depart="19.96" departLane="best">
        <route edges="13934426#0 13934426#1 13933571 114129373#10 13934351 -13933268#7 13934685#0 13934685#1 13932660#6 13933363#0 13933363#1 13933363#2 13933363#5 13933908#10 13933908#14 13933908#17 13933908#20"/>
    </vehicle>
    <vehicle id="veh33" type="veh_passenger" depart="20.58" departLane="best">
        <route edges="-13933339#2 -13933339#1 -13934740#10 -13934740#9 -13934740#8 -13934740#7 -13934740#6 -13934740#5 -13934740#4 -13931491 -13934585#1 -13934585#0 -114011110#1 -13932983#3 -52155443 -13934799#5 -13934799#4 -13934799#3 -13934799#2 -13934340 13933908#1 13933908#2 13933908#3 -13930730#7 -13930730#6 -13930730#5 -13930730#4 -13930730#3"/>
    </vehicle>
    <vehicle id="veh34" type="veh_passenger" depart="21.21" departLane="best">
        <route edges="-13934038#2 -13934915#1 -13933687#0 -13934042#8 -13934042#7 -13934042#6 -13934042#5 -13934042#4 -13934042#3 -13934042#2 -13934042#1 -13934042#0 -114129394#4 -114129394#3 -114129394#2 -13935107#1 -13935107#0 -13935105 -13935101 -13935098#2 -13935098#1 -13935098#0 -13933939#3"/>
    </vehicle>
    <vehicle id="veh35" type="veh_passenger" depart="21.83" departLane="best">
        <route edges="-13933223#0 -13934554#1 -13934554#0 -13934245#1 -13934245#0 -13934244#1 -13934244#0 13932970#4 13932970#6 13932970#7 13932970#8 13932970#9 13932970#10 13932970#11 13932970#12 1171874699#0 1171874699#1 1171874699#2 1171874700 13933654#1 13933654#2 13933654#4 13933654#5 13933654#6 13933654#7 13933654#8 13933654#9 13933654#10 13933654#11 13933654#12 13934799#0 13934799#1 13934799#2 13934799#3 13934799#4 13934799#5 -13933027#3 -13933027#2 -13933027#1 -13933027#0 13933966#1 13933966#2 13933966#3 13933966#4 13933083#2 13933083#3 13935161#7"/>
    </vehicle>
    <vehicle id="veh36" type="veh_passenger" depart="22.45" departLane="best" departSpeed="max">
        <route edges="13934735 -114011110#1 -114011110#0 -52155442#0 -13933027#3 -13933027#2 -13933027#1 -13934545#1 -13934545#0 13933908#7 13933908#8 13933908#9 -13933363#5 -13934500#1"/>
    </vehicle>
    <vehicle id="veh37" type="veh_passenger" depart="23.08" departLane="best">
        <route edges="13933009#1 -13932724#0 -13933179#7 -13933179#6 -13933179#5 -13933179#4 -13933179#3 -13933179#2 -13933179#1 -13933179#0 13933124#2 -382882201 -52155442#0 -13933027#3 -13933027#2 -13933027#1 -13934545#1 -13934545#0 13933908#7 13933908#8 13933908#9 13933908#10 13933908#14 13933908#17 13933908#20 13933908#21 13933908#22 13933908#23 -13934424#8 -13934424#7 -13934424#6 -13934424#5 -13934424#4 -13933318 -13934538#1 -13934991#0"/>
    </vehicle>
    <vehicle id="veh38" type="veh_passenger" depart="23.70" departLane="best">
        <route edges="13934921#3 -13934606#2 -13934606#1 1171874709#2 1171874709#3 1171874709#4 -1171874708#2 -1171874708#0 -114129375 -13934819 -13935312#1 -13935312#0 13934799#1 13934799#2 13934799#3 13934799#4 13934799#5 -13933027#3 -13933027#2 -13933027#1 -13933027#0 13933966#1 13933966#2 13933966#3 13933966#4 13933966#5 -13934527#4 -13934527#3 -13934527#2 -13934527#1 -13934527#0 52155440#0 52155440#1 52155440#2 52155440#3 114018285#0 114018285#1-AddedOnRampEdge 114018285#1 114018285#3 114018285#4 114018283#9"/>
    </vehicle>
    <vehicle id="veh39" type="veh_passenger" depart="24.33" departLane="best">
        <route edges="-13933525#6 -13934992#0 13933484#7 13933484#9 13934799#0 13935312#0 13935312#1 13934819 114129409 1171874708#0 1171874708#1 13935041#0 13935041#1 13935041#2 13935041#3 13935041#4 -13934042#8 -13934042#7 -13934042#6 -13934042#5 -13934042#4 -13934042#3 -13934042#2 -13934042#1 -13934042#0 -114129394#4 -114129394#3 -114129394#2 -13935107#1 -13935107#0 -13935105 -13932944#7 -13933729"/>
    </vehicle>
    <vehicle id="veh40" type="veh_passenger" depart="24.95" departLane="best" departSpeed="max">
        <route edges="1290458510#0 1290458511#0 1290458511#1 1290458511#2 -13934177#3 -13934177#1 169827281#2 169827281#2-AddedOffRampEdge 952588824 952588832-AddedOnRampEdge 952588832 52282331#0-AddedOnRampEdge 52282331#0 52282331#0-AddedOffRampEdge 13931298#0 -13933908#28"/>
    </vehicle>
    <vehicle id="veh41" type="veh_passenger" depart="25.57" departLane="best" departSpeed="max">
        <route edges="13931854 13932875#1 13935101 13935105 13935107#0 13935107#1 -114129394#1 -114129394#0 13935217#0 1171874697 13933654#1 13933654#2 13933654#4 13933654#5 13933654#6 13933654#7 13933654#8 13933654#9 13933654#10 13933654#11 13933654#12 13933908#0 13933908#1 13933908#2 13933908#3 13933908#4 13933908#5 13933908#6 13933908#7 13933908#8 13933908#9 13933908#10 13933908#14 13933908#17 13933908#20 13933908#21 13933908#22 13933908#23 13933908#24 -13934944#7 -13934944#6 -13934944#5 -13934944#4 -13934944#3"/>
    </vehicle>
    <vehicle id="veh42" type="veh_passenger" depart="26.20" departLane="best">
        <route edges="-13934850 -13933884#1 -13933884#0 -13933509#2 -13933509#1 -13933509#0"/>
    </vehicle>
    <vehicle id="veh43" type="veh_passenger" depart="26.82" departLane="best">
        <route edges="952588827#0 952588827#1-AddedOnRampEdge 952588827#1 52282335#2 52282335#3 13935153#0 13935153#1 13935153#4 13935153#5 13935153#6 13935153#7 13935153#8 13935153#11 1171874703#0 1171874703#1 1171874703#3 1171874703#4 1171874699#2 1171874700 13933654#1 13933654#2 13933654#4 13933654#5 13933654#6 13933654#7 13933654#8 13933654#9 13933654#10 13933654#11 13933654#12 13933908#0 13933908#1 13933908#2 13933908#3 -13930730#7 -13930730#6"/>
    </vehicle>
    <vehicle id="veh44" type="veh_passenger" depart="27.44" departLane="best">
        <route edges="-13932660#5 -13930730#3 -13930730#2 -13930730#1 -13930730#0 -13934773#6 -13934773#5 -13934773#4 -13934773#3 13933101#7 -13934398#3 -13934398#2 -13934398#1 -13934398#0 -114129396#5 -13931681"/>
    </vehicle>
    <vehicle id="veh45" type="veh_passenger" depart="28.07" departLane="best">
        <route edges="-13932763#2 -13933179#4 -13933179#3 -13933179#2 -13933179#1 -13933179#0 13933124#2 -382882201 -52155442#0 -13934799#5 -13934799#4 -13934799#3 -13934799#2 -13934799#1 13935312#0 13935312#1 13934819 114129409 1171874708#0 1171874708#1 13935041#0 13935041#1 13935041#2 13935041#3 13935041#4 -13934042#8 -13934042#7 -13934042#6 -13934042#5 -13934042#4 -13934042#3 -13934042#2 -13934042#1 -13934042#0 114129394#5 114129394#6 13932982#0 13932982#1"/>
    </vehicle>
    <vehicle id="veh46" type="veh_passenger" depart="28.69" departLane="best">
        <route edges="13933884#1 13933884#2 13935296#10 114129373#8 114129373#9 114129373#10 13934351 -13933268#7 13934685#0 13934685#1 13934685#2 13934685#3 13934685#5 13934685#7 13934685#8 13933908#6 13934545#0 13934545#1 -13933027#0 13933966#1 13933966#2 13933966#3 13933966#4 13933966#5 -13934527#4 -13934527#3 -13934527#2 13935161#8 13935161#9"/>
    </vehicle>
    <vehicle id="veh47" type="veh_passenger" depart="29.32" departLane="best" departSpeed="max">
        <route edges="-13931720 13934042#8 13933687#0 13933687#1 13933687#2 13933687#3 13933687#4 13933689#0 13933689#1 13933689#2 13933689#3 13934927#0"/>
    </vehicle>
    <vehicle id="veh48" type="veh_passenger" depart="29.94" departLane="best">
        <route edges="952588821#1 -107180812#4 -107180812#3 -107180812#0 13933414 13934058#1 13934058#2 13934058#3 13933432#0 13933432#1 13933024#3 -13932825#6 -13932825#5 -13932825#4 13931329"/>
    </vehicle>
    <vehicle id="veh49" type="veh_passenger" depart="30.56" departLane="best">
        <route edges="13935296#7 13935296#8 13935296#9 13935296#10 -114129373#7 -114129373#6 13934424#0 13934424#2 13934424#3 13934424#4 13934424#5 13934424#6 13934424#7 13934424#8 -13933908#23 -13933908#22 -13933908#21 -13933908#20 13935151#0 13935151#1 13935151#2 13934738#0 13934738#1"/>
    </vehicle>
    <vehicle id="veh50" type="veh_passenger" depart="31.19" departLane="best">
        <route edges="114129388#0 114129388#1 -13934585#4 -13934585#3 -13934585#2 13931491 -13934740#2 13933429#0 13933429#1 13933428#0 13933428#1"/>
    </vehicle>
    <vehicle id="veh51" type="veh_passenger" depart="31.81" departLane="best">
        <route edges="13933099 542658287#1 13933654#5 13933654#6 13933654#7 13933654#8 13933654#9 13933654#10 13933654#11 13933654#12 13934799#0 13935312#0 13935312#1 13934819 114129409 1171874708#0 1171874708#1 13935041#0 13935041#1 13935041#2 13935041#3 13935041#4 13933687#0 13933687#1 13933687#2 13933687#3 13933687#4 13933689#0 13932602#0 13931523"/>
    </vehicle>
    <vehicle id="veh52" type="veh_passenger" depart="32.43" departLane="best">
        <route edges="13933568#1 13932723#2 114018283#10 114018283#10-AddedOffRampEdge 114018283#11 114018283#12 114018283#13-AddedOnRampEdge 114018283#13 -52155440#3 -52155440#2 -52155440#1 -52155440#0 13934527#0 13934527#1 13934527#2 13934527#3 13934527#4 -13933966#5 -13933966#4 -13933966#3 -13933966#2 -13933966#1 485779584#0 13933040#2"/>
    </vehicle>
    <vehicle id="veh53" type="veh_passenger" depart="33.06" departLane="best">
        <route edges="-13932771#0 -13933255#1 -13933255#0 -13932838#2 -13932838#1 -13932838#0 13934798#0 13934798#1 13934798#2 13934798#3 114018283#0 114018283#2 114018283#4 114018283#5 114018283#6 114018283#7 114018283#8 114018283#9 114018283#10 114018283#10-AddedOffRampEdge 114018283#11 114018283#12 114018283#13-AddedOnRampEdge 114018283#13 -52155440#3 -52155440#2 -52155440#1 -52155440#0 13934527#0 13934527#1 13934527#2 13934527#3 13934527#4 -13933966#5 -13933966#4 -13933966#3 -13933966#2 -13933966#1 13933027#0 13933027#1 13933027#2 13933027#3 -13934799#5 -13934799#4 -13934799#3 -13934799#2 -13934799#1 13935312#0 13935312#1"/>
    </vehicle>
    <vehicle id="veh54" type="veh_passenger" depart="33.68" departLane="best">
        <route edges="13935151#8 -52155440#1 -52155440#0 13934527#0 13934527#1 13934527#2 13934527#3 13934527#4 -13933966#5 -13933966#4 -13933966#3 -13933966#2 -13933966#1 13933027#0 13933027#1 13935275#2"/>
    </vehicle>
    <vehicle id="veh55" type="veh_passenger" depart="34.31" departLane="best">
        <route edges="13934734#9 -13934524#1 -13934524#0 -13934738#0 -13935151#2 -13935151#1 -13935151#0 -13933908#19 -13933908#16 -13933908#13 -13933908#9 -13933908#8 -13933908#7 -13933908#6 -13933908#5 -13933908#4"/>
    </vehicle>