<?xml version="1.0" encoding="UTF-8"?>

<!-- generated on 2025-04-27 15:10:31.010333 by randomTrips.py v1_22_0+0002-63e50f52594
<configuration>
    <net-file value="osm.net.xml.gz"/>
    <output-trip-file value="osm.passenger.trips.xml"/>
    <route-file value="osm.passenger.rou.xml"/>
    <prefix value="veh"/>
    <trip-attributes value="departLane=&quot;best&quot;"/>
    <fringe-start-attributes value="departSpeed=&quot;max&quot;"/>
    <vehicle-class value="passenger"/>
    <lanes value="True"/>
    <fringe-factor value="5"/>
    <allow-fringe.min-length value="1000.0"/>
    <via-edge-types value="highway.motorway,highway.motorway_link,highway.trunk_link,highway.primary_link,highway.secondary_link,highway.tertiary_link"/>
    <min-distance value="300.0"/>
    <min-distance.fringe value="10.0"/>
    <remove-loops value="True"/>
    <validate value="True"/>
    <insertion-density value="12.0"/>
</configuration>
-->

<!-- generated on 2025-04-27 15:10:24 by Eclipse SUMO duarouter Version 1.22.0
<duarouterConfiguration xmlns:xsi="http://www.w3.org/2001/XMLSchema-instance" xsi:noNamespaceSchemaLocation="http://sumo.dlr.de/xsd/duarouterConfiguration.xsd">

    <input>
        <net-file value="osm.net.xml.gz"/>
        <route-files value="osm.passenger.trips.xml"/>
    </input>

    <output>
        <output-file value="osm.passenger.trips.xml.tmp"/>
        <alternatives-output value="NUL"/>
        <write-trips value="true"/>
    </output>

    <processing>
        <remove-loops value="true"/>
    </processing>

    <time>
        <begin value="0.0"/>
        <end value="3600.0"/>
    </time>

    <report>
        <no-warnings value="true"/>
        <ignore-errors value="true"/>
        <no-step-log value="true"/>
    </report>

</duarouterConfiguration>
-->

<routes xmlns:xsi="http://www.w3.org/2001/XMLSchema-instance" xsi:noNamespaceSchemaLocation="http://sumo.dlr.de/xsd/routes_file.xsd">
    <vType id="veh_passenger" vClass="passenger" accel="2.5" decel="3.5" emergencyDecel="4.5" tau="1.0" sigma="0.5" minGap="2.5" startupDelay="0.5" actionStepLength="1.0" carFollowModel="Krauss"/>
    <trip id="veh0" type="veh_passenger" depart="0.00" departLane="best" departSpeed="max" from="13932913#0" to="-1290458497#0"/>
    <trip id="veh1" type="veh_passenger" depart="0.62" departLane="best" from="13933654#7" to="-13933517#0"/>
    <trip id="veh2" type="veh_passenger" depart="1.25" departLane="best" from="-13933414" to="13933174#1"/>
    <trip id="veh3" type="veh_passenger" depart="1.87" departLane="best" from="13934798#2" to="13932781#3"/>
    <trip id="veh4" type="veh_passenger" depart="2.49" departLane="best" departSpeed="max" from="-13934960" to="-1290458515"/>
    <trip id="veh5" type="veh_passenger" depart="3.12" departLane="best" from="-13933268#7" to="1290458513#1"/>
    <trip id="veh6" type="veh_passenger" depart="3.74" departLane="best" departSpeed="max" from="-1290458512#1" to="-13933383#3"/>
    <trip id="veh7" type="veh_passenger" depart="4.37" departLane="best" from="13932970#10" to="-13931883#2"/>
    <trip id="veh8" type="veh_passenger" depart="4.99" departLane="best" departSpeed="max" from="-13933298" to="13932771#1"/>
    <trip id="veh9" type="veh_passenger" depart="5.61" departLane="best" from="13934007#3" to="114129370#5"/>
    <trip id="veh10" type="veh_passenger" depart="6.24" departLane="best" from="-13933966#4" to="13933315"/>
    <trip id="veh11" type="veh_passenger" depart="6.86" departLane="best" from="-13934302#1" to="-13933126#0"/>
    <trip id="veh12" type="veh_passenger" depart="7.48" departLane="best" from="13935161#6" to="-13934731#0"/>
    <trip id="veh13" type="veh_passenger" depart="8.11" departLane="best" from="13932662#3" to="13932851#3"/>
    <trip id="veh14" type="veh_passenger" depart="8.73" departLane="best" from="13934436#0" to="13932841"/>
    <trip id="veh15" type="veh_passenger" depart="9.36" departLane="best" departSpeed="max" from="13933995#0" to="13933473#1"/>
    <trip id="veh16" type="veh_passenger" depart="9.98" departLane="best" departSpeed="max" from="-114129394#0" to="169827281#2-AddedOffRampEdge"/>
    <trip id="veh17" type="veh_passenger" depart="10.60" departLane="best" from="-13934734#8" to="13932229"/>
    <trip id="veh18" type="veh_passenger" depart="11.23" departLane="best" from="13934187#0" to="13932945"/>
    <trip id="veh19" type="veh_passenger" depart="11.85" departLane="best" departSpeed="max" from="13934579#0" to="13932724#0"/>
    <trip id="veh20" type="veh_passenger" depart="12.47" departLane="best" departSpeed="max" from="13933194#0" to="-13931659"/>
    <trip id="veh21" type="veh_passenger" depart="13.10" departLane="best" from="-13933335#3" to="-13934167#0"/>
    <trip id="veh22" type="veh_passenger" depart="13.72" departLane="best" departSpeed="max" from="-13932459" to="13933620#2"/>
    <trip id="veh23" type="veh_passenger" depart="14.35" departLane="best" from="-13932724#1" to="-13934038#5"/>
    <trip id="veh24" type="veh_passenger" depart="14.97" departLane="best" from="-13932863#5" to="-13934848#0"/>
    <trip id="veh25" type="veh_passenger" depart="15.59" departLane="best" departSpeed="max" from="-13934679" to="13933455#1"/>
    <trip id="veh26" type="veh_passenger" depart="16.22" departLane="best" from="13933568#1" to="-13935153#4"/>
    <trip id="veh27" type="veh_passenger" depart="16.84" departLane="best" from="13932963#2" to="13932875#0"/>
    <trip id="veh28" type="veh_passenger" depart="17.46" departLane="best" departSpeed="max" from="-13933055" to="13933461#2"/>
    <trip id="veh29" type="veh_passenger" depart="18.09" departLane="best" from="-13933030#2" to="-13934921#2"/>
    <trip id="veh30" type="veh_passenger" depart="18.71" departLane="best" departSpeed="max" from="52282334#0" to="13933030#2"/>
    <trip id="veh31" type="veh_passenger" depart="19.34" departLane="best" departSpeed="max" from="1290458496" to="13933205#0"/>
    <trip id="veh32" type="veh_passenger" depart="19.96" departLane="best" from="13934426#0" to="13933908#20"/>
    <trip id="veh33" type="veh_passenger" depart="20.58" departLane="best" from="-13933339#2" to="-13930730#3"/>
    <trip id="veh34" type="veh_passenger" depart="21.21" departLane="best" from="-13934038#2" to="-13933939#3"/>
    <trip id="veh35" type="veh_passenger" depart="21.83" departLane="best" from="-13933223#0" to="13935161#7"/>
    <trip id="veh36" type="veh_passenger" depart="22.45" departLane="best" departSpeed="max" from="13934735" to="-13934500#1"/>
    <trip id="veh37" type="veh_passenger" depart="23.08" departLane="best" from="13933009#1" to="-13934991#0"/>
    <trip id="veh38" type="veh_passenger" depart="23.70" departLane="best" from="13934921#3" to="114018283#9"/>
    <trip id="veh39" type="veh_passenger" depart="24.33" departLane="best" from="-13933525#6" to="-13933729"/>
    <trip id="veh40" type="veh_passenger" depart="24.95" departLane="best" departSpeed="max" from="1290458510#0" to="-13933908#28"/>
    <trip id="veh41" type="veh_passenger" depart="25.57" departLane="best" departSpeed="max" from="13931854" to="-13934944#3"/>
    <trip id="veh42" type="veh_passenger" depart="26.20" departLane="best" from="-13934850" to="-13933509#0"/>
    <trip id="veh43" type="veh_passenger" depart="26.82" departLane="best" from="952588827#0" to="-13930730#6"/>
    <trip id="veh44" type="veh_passenger" depart="27.44" departLane="best" from="-13932660#5" to="-13931681"/>
    <trip id="veh45" type="veh_passenger" depart="28.07" departLane="best" from="-13932763#2" to="13932982#1"/>
    <trip id="veh46" type="veh_passenger" depart="28.69" departLane="best" from="13933884#1" to="13935161#9"/>
    <trip id="veh47" type="veh_passenger" depart="29.32" departLane="best" departSpeed="max" from="-13931720" to="13934927#0"/>
    <trip id="veh48" type="veh_passenger" depart="29.94" departLane="best" from="952588821#1" to="13931329"/>
    <trip id="veh49" type="veh_passenger" depart="30.56" departLane="best" from="13935296#7" to="13934738#1"/>
    <trip id="veh50" type="veh_passenger" depart="31.19" departLane="best" from="114129388#0" to="13933428#1"/>
    <trip id="veh51" type="veh_passenger" depart="31.81" departLane="best" from="13933099" to="13931523"/>
    <trip id="veh52" type="veh_passenger" depart="32.43" departLane="best" from="13933568#1" to="13933040#2"/>
    <trip id="veh53" type="veh_passenger" depart="33.06" departLane="best" from="-13932771#0" to="13935312#1"/>
    <trip id="veh54" type="veh_passenger" depart="33.68" departLane="best" from="13935151#8" to="13935275#2"/>
    <trip id="veh55" type="veh_passenger" depart="34.31" departLane="best" from="13934734#9" to="-13933908#4"/>
    <trip id="veh56" type="veh_passenger" depart="34.93" departLane="best" departSpeed="max" from="-741102132" to="-13933268#1"/>
    <trip id="veh57" type="veh_passenger" depart="35.55" departLane="best" departSpeed="max" from="13934921#0" to="-13934798#0"/>
    <trip id="veh58" type="veh_passenger" depart="36.18" departLane="best" from="-13933908#23" to="13933027#3"/>
    <trip id="veh59" type="veh_passenger" depart="36.80" departLane="best" from="13932716#2" to="-13933112#5"/>
    <trip id="veh60" type="veh_passenger" depart="37.42" departLane="best" from="-13933532#0" to="13931664"/>
    <trip id="veh61" type="veh_passenger" depart="38.05" departLane="best" from="-13933689#2" to="13931329"/>
    <trip id="veh62" type="veh_passenger" depart="38.67" departLane="best" from="1012939218#3" to="-13934569"/>
    <trip id="veh63" type="veh_passenger" depart="39.30" departLane="best" from="-1171874708#0" to="13935133#3"/>
    <trip id="veh64" type="veh_passenger" depart="39.92" departLane="best" from="13934736#5" to="13934524#1"/>
    <trip id="veh65" type="veh_passenger" depart="40.54" departLane="best" from="-13933966#1" to="-13932609#1"/>
    <trip id="veh66" type="veh_passenger" depart="41.17" departLane="best" from="13934736#3" to="13935223#2"/>
    <trip id="veh67" type="veh_passenger" depart="41.79" departLane="best" from="-13932629#0" to="1171874702#1"/>
    <trip id="veh68" type="veh_passenger" depart="42.41" departLane="best" from="-13931883#8" to="13933701"/>
    <trip id="veh69" type="veh_passenger" depart="43.04" departLane="best" from="13933571" to="13933040#8"/>
    <trip id="veh70" type="veh_passenger" depart="43.66" departLane="best" from="-13935296#10" to="13932149"/>
    <trip id="veh71" type="veh_passenger" depart="44.29" departLane="best" from="-13933532#1" to="13934799#3"/>
    <trip id="veh72" type="veh_passenger" depart="44.91" departLane="best" from="-13934962#1" to="-13933473#0"/>
    <trip id="veh73" type="veh_passenger" depart="45.53" departLane="best" from="1171874699#1" to="13933473#1"/>
    <trip id="veh74" type="veh_passenger" depart="46.16" departLane="best" from="-13933179#2" to="-13934434#0"/>
    <trip id="veh75" type="veh_passenger" depart="46.78" departLane="best" from="858411090" to="13933066#0"/>
    <trip id="veh76" type="veh_passenger" depart="47.40" departLane="best" departSpeed="max" from="-13935067" to="13930929"/>
    <trip id="veh77" type="veh_passenger" depart="48.03" departLane="best" from="-13932825#3" to="-13933522"/>
    <trip id="veh78" type="veh_passenger" depart="48.65" departLane="best" departSpeed="max" from="-13934252#1" to="13932771#0"/>
    <trip id="veh79" type="veh_passenger" depart="49.28" departLane="best" from="13933362#1" to="-13933509#0"/>
    <trip id="veh80" type="veh_passenger" depart="49.90" departLane="best" from="-13931933" to="13933009#0"/>
    <trip id="veh81" type="veh_passenger" depart="50.52" departLane="best" from="-13933339#2" to="13934967#5"/>
    <trip id="veh82" type="veh_passenger" depart="51.15" departLane="best" departSpeed="max" from="13934569" to="13932681"/>
    <trip id="veh83" type="veh_passenger" depart="51.77" departLane="best" from="-13933396#2" to="13933128"/>
    <trip id="veh84" type="veh_passenger" depart="52.39" departLane="best" departSpeed="max" from="-13933242" to="-13933053"/>
    <trip id="veh85" type="veh_passenger" depart="53.02" departLane="best" from="13935042#1" to="13932663#0"/>
    <trip id="veh86" type="veh_passenger" depart="53.64" departLane="best" departSpeed="max" from="-13935288" to="13933941"/>
    <trip id="veh87" type="veh_passenger" depart="54.27" departLane="best" departSpeed="max" from="13933995#0" to="-13933362#0"/>
    <trip id="veh88" type="veh_passenger" depart="54.89" departLane="best" departSpeed="max" from="-13932703" to="-13935296#10"/>
    <trip id="veh89" type="veh_passenger" depart="55.51" departLane="best" from="-13934963#0" to="114129373#4"/>
    <trip id="veh90" type="veh_passenger" depart="56.14" departLane="best" from="13933369#1" to="13933165#0"/>
    <trip id="veh91" type="veh_passenger" depart="56.76" departLane="best" departSpeed="max" from="353323594" to="-13932862#4"/>
    <trip id="veh92" type="veh_passenger" depart="57.38" departLane="best" departSpeed="max" from="-13934879#3" to="-13934734#3"/>
    <trip id="veh93" type="veh_passenger" depart="58.01" departLane="best" from="13933123#1" to="-749957785"/>
    <trip id="veh94" type="veh_passenger" depart="58.63" departLane="best" departSpeed="max" from="-13934960" to="-13934042#0"/>
    <trip id="veh95" type="veh_passenger" depart="59.26" departLane="best" from="-13933461#1" to="13935081"/>
    <trip id="veh96" type="veh_passenger" depart="59.88" departLane="best" from="13935098#2" to="13934740#0"/>
    <trip id="veh97" type="veh_passenger" depart="60.50" departLane="best" from="1171874703#6" to="-13931883#1"/>
    <trip id="veh98" type="veh_passenger" depart="61.13" departLane="best" from="13935282" to="13934545#5"/>
    <trip id="veh99" type="veh_passenger" depart="61.75" departLane="best" from="13935296#0" to="-13935121#2"/>
    <trip id="veh100" type="veh_passenger" depart="62.37" departLane="best" from="13934456" to="-13933184#0"/>
    <trip id="veh101" type="veh_passenger" depart="63.00" departLane="best" from="13935331#1" to="-13933484#5"/>
    <trip id="veh102" type="veh_passenger" depart="63.62" departLane="best" from="-13934869#7" to="-13932613"/>
    <trip id="veh103" type="veh_passenger" depart="64.25" departLane="best" from="13934734#9" to="741102130#1"/>
    <trip id="veh104" type="veh_passenger" depart="64.87" departLane="best" from="-13933532#0" to="13933941"/>
    <trip id="veh105" type="veh_passenger" depart="65.49" departLane="best" from="13935153#11" to="13935223#1"/>
    <trip id="veh106" type="veh_passenger" depart="66.12" departLane="best" from="13935161#6" to="952588827#1"/>
    <trip id="veh107" type="veh_passenger" depart="66.74" departLane="best" from="1290458492#3" to="13933418"/>
    <trip id="veh108" type="veh_passenger" depart="67.36" departLane="best" from="13933009#1" to="-13934215#0"/>
    <trip id="veh109" type="veh_passenger" depart="67.99" departLane="best" from="13935293" to="13932724#7"/>
    <trip id="veh110" type="veh_passenger" depart="68.61" departLane="best" from="1171874705#0" to="13933578#0"/>
    <trip id="veh111" type="veh_passenger" depart="69.24" departLane="best" departSpeed="max" from="-13931402" to="13932731#4"/>
    <trip id="veh112" type="veh_passenger" depart="69.86" departLane="best" departSpeed="max" from="-741104373" to="-13933908#5"/>
    <trip id="veh113" type="veh_passenger" depart="70.48" departLane="best" from="-13933022#4" to="13935296#8"/>
    <trip id="veh114" type="veh_passenger" depart="71.11" departLane="best" departSpeed="max" from="-13932459" to="-13933319#6"/>
    <trip id="veh115" type="veh_passenger" depart="71.73" departLane="best" from="13932615#0" to="13933225#1"/>
    <trip id="veh116" type="veh_passenger" depart="72.35" departLane="best" from="-13933374" to="13933009#1"/>
    <trip id="veh117" type="veh_passenger" depart="72.98" departLane="best" from="13934773#5" to="-13933723"/>
    <trip id="veh118" type="veh_passenger" depart="73.60" departLane="best" from="13932609#2" to="13932947"/>
    <trip id="veh119" type="veh_passenger" depart="74.23" departLane="best" from="13934944#7" to="-13932731#2"/>
    <trip id="veh120" type="veh_passenger" depart="74.85" departLane="best" from="114129370#8" to="-13935151#8"/>
    <trip id="veh121" type="veh_passenger" depart="75.47" departLane="best" from="-13933184#2" to="13933396#2"/>
    <trip id="veh122" type="veh_passenger" depart="76.10" departLane="best" from="-13933396#4" to="-13934991#1"/>
    <trip id="veh123" type="veh_passenger" depart="76.72" departLane="best" departSpeed="max" from="13933071" to="-13934293#0"/>
    <trip id="veh124" type="veh_passenger" depart="77.34" departLane="best" from="-13934038#5" to="-13933654#12"/>
    <trip id="veh125" type="veh_passenger" depart="77.97" departLane="best" departSpeed="max" from="-13931959" to="114018285#8"/>
    <trip id="veh126" type="veh_passenger" depart="78.59" departLane="best" from="-13932149" to="-13933484#2"/>
    <trip id="veh127" type="veh_passenger" depart="79.22" departLane="best" from="-13933532#0" to="13935151#3"/>
    <trip id="veh128" type="veh_passenger" depart="79.84" departLane="best" from="-13934740#11" to="13934869#1"/>
    <trip id="veh129" type="veh_passenger" depart="80.46" departLane="best" departSpeed="max" from="-13934667" to="-13933147#3"/>
    <trip id="veh130" type="veh_passenger" depart="81.09" departLane="best" from="-13934252#0" to="13933333#3"/>
    <trip id="veh131" type="veh_passenger" depart="81.71" departLane="best" from="-13932724#3" to="741102131#1"/>
    <trip id="veh132" type="veh_passenger" depart="82.33" departLane="best" from="13933004#0" to="-114129373#1"/>
    <trip id="veh133" type="veh_passenger" depart="82.96" departLane="best" from="13934058#2" to="-13934286#0"/>
    <trip id="veh134" type="veh_passenger" depart="83.58" departLane="best" from="13933040#5" to="-13935153#10"/>
    <trip id="veh135" type="veh_passenger" depart="84.21" departLane="best" departSpeed="max" from="-13932890" to="-13932970#5"/>
    <trip id="veh136" type="veh_passenger" depart="84.83" departLane="best" from="-13932731#2" to="13932234"/>
    <trip id="veh137" type="veh_passenger" depart="85.45" departLane="best" from="-13933620#7" to="13932850#1"/>
    <trip id="veh138" type="veh_passenger" depart="86.08" departLane="best" departSpeed="max" from="13933302#0" to="-13933426"/>
    <trip id="veh139" type="veh_passenger" depart="86.70" departLane="best" from="-13932862#4" to="-13933908#6"/>
    <trip id="veh140" type="veh_passenger" depart="87.32" departLane="best" departSpeed="max" from="-353041718" to="-13934967#5"/>
    <trip id="veh141" type="veh_passenger" depart="87.95" departLane="best" departSpeed="max" from="13934434#0" to="-13932827#1"/>
    <trip id="veh142" type="veh_passenger" depart="88.57" departLane="best" from="-13934963#0" to="13934016#1"/>
    <trip id="veh143" type="veh_passenger" depart="89.20" departLane="best" from="-114011110#1" to="13933865#1"/>
    <trip id="veh144" type="veh_passenger" depart="89.82" departLane="best" departSpeed="max" from="13932865" to="13933908#25"/>
    <trip id="veh145" type="veh_passenger" depart="90.44" departLane="best" from="13933435#1" to="13932229"/>
    <trip id="veh146" type="veh_passenger" depart="91.07" departLane="best" departSpeed="max" from="-13934972#3" to="114129373#7"/>
    <trip id="veh147" type="veh_passenger" depart="91.69" departLane="best" departSpeed="max" from="-13932229" to="13934879#3"/>
    <trip id="veh148" type="veh_passenger" depart="92.31" departLane="best" from="-13934886#0" to="13931883#6"/>
    <trip id="veh149" type="veh_passenger" depart="92.94" departLane="best" from="13934286#0" to="13932730#2"/>
    <trip id="veh150" type="veh_passenger" depart="93.56" departLane="best" from="13932970#11" to="13933040#4"/>
    <trip id="veh151" type="veh_passenger" depart="94.19" departLane="best" from="-13933966#4" to="13934956#0"/>
    <trip id="veh152" type="veh_passenger" depart="94.81" departLane="best" from="-13933908#20" to="13934738#1"/>
    <trip id="veh153" type="veh_passenger" depart="95.43" departLane="best" departSpeed="max" from="13934843" to="-13933458"/>
    <trip id="veh154" type="veh_passenger" depart="96.06" departLane="best" from="-13933461#0" to="13932906"/>
    <trip id="veh155" type="veh_passenger" depart="96.68" departLane="best" from="13933709#2" to="13934886#0"/>
    <trip id="veh156" type="veh_passenger" depart="97.30" departLane="best" from="-13934900#0" to="13932957#4"/>
    <trip id="veh157" type="veh_passenger" depart="97.93" departLane="best" from="-13933009#0" to="13935133#6"/>
    <trip id="veh158" type="veh_passenger" depart="98.55" departLane="best" from="13934586#1" to="351686856#1"/>
    <trip id="veh159" type="veh_passenger" depart="99.18" departLane="best" from="13934007#8" to="13934879#0"/>
    <trip id="veh160" type="veh_passenger" depart="99.80" departLane="best" from="-1290458509" to="13933499"/>
    <trip id="veh161" type="veh_passenger" depart="100.42" departLane="best" from="-13934185" to="13935133#9"/>
    <trip id="veh162" type="veh_passenger" depart="101.05" departLane="best" departSpeed="max" from="13933939#0" to="13934740#9"/>
    <trip id="veh163" type="veh_passenger" depart="101.67" departLane="best" from="13934007#8" to="-13933939#0"/>
    <trip id="veh164" type="veh_passenger" depart="102.29" departLane="best" from="13933736#4" to="-13932944#2"/>
    <trip id="veh165" type="veh_passenger" depart="102.92" departLane="best" from="13934731#2" to="13934736#0"/>
    <trip id="veh166" type="veh_passenger" depart="103.54" departLane="best" from="-13933318" to="13934252#1"/>
    <trip id="veh167" type="veh_passenger" depart="104.17" departLane="best" from="-13935161#1" to="-13934398#2"/>
    <trip id="veh168" type="veh_passenger" depart="104.79" departLane="best" from="13933908#14" to="-13933558#0"/>
    <trip id="veh169" type="veh_passenger" depart="105.41" departLane="best" departSpeed="max" from="-1290458497#1" to="13933369#0"/>
    <trip id="veh170" type="veh_passenger" depart="106.04" departLane="best" from="-13934167#1" to="13934746#2"/>
    <trip id="veh171" type="veh_passenger" depart="106.66" departLane="best" from="-13935279#0" to="-13934042#2"/>
    <trip id="veh172" type="veh_passenger" depart="107.28" departLane="best" from="-13932928#8" to="13935042#1"/>
    <trip id="veh173" type="veh_passenger" depart="107.91" departLane="best" departSpeed="max" from="347355734" to="13931523"/>
    <trip id="veh174" type="veh_passenger" depart="108.53" departLane="best" from="13935078#3" to="-13932970#5"/>
    <trip id="veh175" type="veh_passenger" depart="109.16" departLane="best" from="13935296#4" to="-13933268#0"/>
    <trip id="veh176" type="veh_passenger" depart="109.78" departLane="best" departSpeed="max" from="13935231#0" to="-13933929#0"/>
    <trip id="veh177" type="veh_passenger" depart="110.40" departLane="best" from="-13932748#1" to="-13935312#1"/>
    <trip id="veh178" type="veh_passenger" depart="111.03" departLane="best" from="13933363#5" to="-13934456"/>
    <trip id="veh179" type="veh_passenger" depart="111.65" departLane="best" from="13932663#1" to="13930761#1"/>
    <trip id="veh180" type="veh_passenger" depart="112.27" departLane="best" from="-13934746#3" to="13932723#0"/>
    <trip id="veh181" type="veh_passenger" depart="112.90" departLane="best" from="-13933488#0" to="13933363#1"/>
    <trip id="veh182" type="veh_passenger" depart="113.52" departLane="best" departSpeed="max" from="-107179081#1" to="13935120"/>
    <trip id="veh183" type="veh_passenger" depart="114.15" departLane="best" from="1171874699#0" to="13933423#2"/>
    <trip id="veh184" type="veh_passenger" depart="114.77" departLane="best" from="13933435#5" to="13933147#3"/>
    <trip id="veh185" type="veh_passenger" depart="115.39" departLane="best" from="-13934588#1" to="-13932663#1"/>
    <trip id="veh186" type="veh_passenger" depart="116.02" departLane="best" from="-13933040#8" to="-13934588#1"/>
    <trip id="veh187" type="veh_passenger" depart="116.64" departLane="best" from="-13934008" to="13934663#0"/>
    <trip id="veh188" type="veh_passenger" depart="117.26" departLane="best" from="-13933994" to="13935133#16"/>
    <trip id="veh189" type="veh_passenger" depart="117.89" departLane="best" from="-13934879#2" to="13934213#4"/>
    <trip id="veh190" type="veh_passenger" depart="118.51" departLane="best" departSpeed="max" from="-13932841" to="-13935161#3"/>
    <trip id="veh191" type="veh_passenger" depart="119.14" departLane="best" from="13935101" to="13933179#0"/>
    <trip id="veh192" type="veh_passenger" depart="119.76" departLane="best" from="13934879#0" to="13932928#3"/>
    <trip id="veh193" type="veh_passenger" depart="120.38" departLane="best" from="-13933908#7" to="13931959"/>
    <trip id="veh194" type="veh_passenger" depart="121.01" departLane="best" from="1012939218#2" to="-13934142#1"/>
    <trip id="veh195" type="veh_passenger" depart="121.63" departLane="best" departSpeed="max" from="-13934984" to="13932724#8"/>
    <trip id="veh196" type="veh_passenger" depart="122.25" departLane="best" from="13933005" to="114129370#6"/>
    <trip id="veh197" type="veh_passenger" depart="122.88" departLane="best" departSpeed="max" from="-13935081" to="-13933484#4"/>
    <trip id="veh198" type="veh_passenger" depart="123.50" departLane="best" departSpeed="max" from="-13935288" to="13934960"/>
    <trip id="veh199" type="veh_passenger" depart="124.13" departLane="best" from="-13933908#20" to="-13933194#0"/>
    <trip id="veh200" type="veh_passenger" depart="124.75" departLane="best" from="13932615#5" to="13930891"/>
    <trip id="veh201" type="veh_passenger" depart="125.37" departLane="best" from="13932851#5" to="-13934685#1"/>
    <trip id="veh202" type="veh_passenger" depart="126.00" departLane="best" from="13934058#7" to="13933654#1"/>
    <trip id="veh203" type="veh_passenger" depart="126.62" departLane="best" departSpeed="max" from="13933072#0" to="-13933522"/>
    <trip id="veh204" type="veh_passenger" depart="127.24" departLane="best" departSpeed="max" from="-13933174#1" to="-1290458497#0"/>
    <trip id="veh205" type="veh_passenger" depart="127.87" departLane="best" from="13933435#5" to="-114129394#4"/>
    <trip id="veh206" type="veh_passenger" depart="128.49" departLane="best" from="13934500#1" to="-13932716#2"/>
    <trip id="veh207" type="veh_passenger" depart="129.12" departLane="best" departSpeed="max" from="-13934924" to="13933004#0"/>
    <trip id="veh208" type="veh_passenger" depart="129.74" departLane="best" from="-13933148#0" to="13933298"/>
    <trip id="veh209" type="veh_passenger" depart="130.36" departLane="best" from="-52155440#5" to="-13933701"/>
    <trip id="veh210" type="veh_passenger" depart="130.99" departLane="best" from="13933022#0" to="114129370#1"/>
    <trip id="veh211" type="veh_passenger" depart="131.61" departLane="best" from="13933488#1" to="13933863#3"/>
    <trip id="veh212" type="veh_passenger" depart="132.23" departLane="best" from="-13932731#1" to="-13935231#1"/>
    <trip id="veh213" type="veh_passenger" depart="132.86" departLane="best" from="-13933076" to="13935291#1"/>
    <trip id="veh214" type="veh_passenger" depart="133.48" departLane="best" from="-13933459#2" to="13934667"/>
    <trip id="veh215" type="veh_passenger" depart="134.11" departLane="best" from="-13935153#5" to="13934099#1"/>
    <trip id="veh216" type="veh_passenger" depart="134.73" departLane="best" from="13933047#0" to="741102131#1"/>
    <trip id="veh217" type="veh_passenger" depart="135.35" departLane="best" from="13932615#2" to="-13935231#1"/>
    <trip id="veh218" type="veh_passenger" depart="135.98" departLane="best" from="-13934787#0" to="13932899"/>
    <trip id="veh219" type="veh_passenger" depart="136.60" departLane="best" from="13933317#2" to="1290458513#1"/>
    <trip id="veh220" type="veh_passenger" depart="137.22" departLane="best" from="13934213#4" to="-13931933"/>
    <trip id="veh221" type="veh_passenger" depart="137.85" departLane="best" from="-13934825#6" to="13933532#1"/>
    <trip id="veh222" type="veh_passenger" depart="138.47" departLane="best" from="-13935296#0" to="13933908#0"/>
    <trip id="veh223" type="veh_passenger" depart="139.09" departLane="best" departSpeed="max" from="-13933455#4" to="13933026#0"/>
    <trip id="veh224" type="veh_passenger" depart="139.72" departLane="best" from="13933571" to="13931173"/>
    <trip id="veh225" type="veh_passenger" depart="140.34" departLane="best" from="-13932825#2" to="-13934007#6"/>
    <trip id="veh226" type="veh_passenger" depart="140.97" departLane="best" departSpeed="max" from="-13932305" to="-13934099#3"/>
    <trip id="veh227" type="veh_passenger" depart="141.59" departLane="best" from="-13933620#5" to="13934545#0"/>
    <trip id="veh228" type="veh_passenger" depart="142.21" departLane="best" from="1171874699#2" to="-13933074#0"/>
    <trip id="veh229" type="veh_passenger" depart="142.84" departLane="best" from="-13933363#5" to="13933268#1"/>
    <trip id="veh230" type="veh_passenger" depart="143.46" departLane="best" from="-13933205#1" to="13932660#2"/>
    <trip id="veh231" type="veh_passenger" depart="144.08" departLane="best" from="-13934900#5" to="13931779"/>
    <trip id="veh232" type="veh_passenger" depart="144.71" departLane="best" from="-13934927#0" to="-13933435#6"/>
    <trip id="veh233" type="veh_passenger" depart="145.33" departLane="best" from="-13934956#3" to="13934967#3"/>
    <trip id="veh234" type="veh_passenger" depart="145.96" departLane="best" departSpeed="max" from="13931854" to="13933286"/>
    <trip id="veh235" type="veh_passenger" depart="146.58" departLane="best" from="13934545#8" to="-13933736#3"/>
    <trip id="veh236" type="veh_passenger" depart="147.20" departLane="best" from="-13934736#5" to="114129370#3"/>
    <trip id="veh237" type="veh_passenger" depart="147.83" departLane="best" from="-13934504#1" to="-13933654#8"/>
    <trip id="veh238" type="veh_passenger" depart="148.45" departLane="best" from="13934528" to="-13935275#1"/>