<?xml version="1.0" encoding="UTF-8"?>

<!-- generated on 2025-04-27 15:10:53.850876 by randomTrips.py v1_22_0+0002-63e50f52594
<configuration>
    <net-file value="osm.net.xml.gz"/>
    <output-trip-file value="osm.passenger.trips.xml"/>
    <route-file value="osm.passenger.rou.xml"/>
    <prefix value="veh"/>
    <trip-attributes value="departLane=&quot;best&quot;"/>
    <fringe-start-attributes value="departSpeed=&quot;max&quot;"/>
    <vehicle-class value="passenger"/>
    <lanes value="True"/>
    <fringe-factor value="5"/>
    <allow-fringe.min-length value="1000.0"/>
    <via-edge-types value="highway.motorway,highway.motorway_link,highway.trunk_link,highway.primary_link,highway.secondary_link,highway.tertiary_link"/>
    <min-distance value="300.0"/>
    <min-distance.fringe value="10.0"/>
    <remove-loops value="True"/>
    <validate value="True"/>
    <insertion-density value="12.0"/>
</configuration>
-->

<!-- generated on 2025-04-27 15:10:53 by Eclipse SUMO duarouter Version 1.22.0
<duarouterConfiguration xmlns:xsi="http://www.w3.org/2001/XMLSchema-instance" xsi:noNamespaceSchemaLocation="http://sumo.dlr.de/xsd/duarouterConfiguration.xsd">

    <input>
        <net-file value="osm.net.xml.gz"/>
        <route-files value="osm.passenger.trips.xml"/>
    </input>

    <output>
        <output-file value="osm.passenger.rou.xml"/>
        <alternatives-output value="NUL"/>
    </output>

    <processing>
        <remove-loops value="true"/>
    </processing>

    <time>
        <begin value="0.0"/>
        <end value="3600.0"/>
    </time>

    <report>
        <no-warnings value="true"/>
        <ignore-errors value="true"/>
        <no-step-log value="true"/>
    </report>

</duarouterConfiguration>
-->

<routes xmlns:xsi="http://www.w3.org/2001/XMLSchema-instance" xsi:noNamespaceSchemaLocation="http://sumo.dlr.de/xsd/routes_file.xsd">
    <vType id="veh_passenger" vClass="passenger"/>
    <vehicle id="veh0" type="veh_passenger" depart="0.00" departLane="best">
        <route edges="13655510#1 -13656603 -13660546#3 -13660546#2 -13660546#1 -1148414314#0 -13658934#9 -13658001 -751718230#14 -751718230#13 -751718230#12 -751718230#11 -751718230#10 -751718230#9 -751718230#8 -751718230#7 -751718230#6 -751718230#5 -751718230#4 -751718230#2 -751718230#1 -751718230#0 564184932 -127788480#7 -127788480#4"/>
    </vehicle>
    <vehicle id="veh1" type="veh_passenger" depart="1.01" departLane="best" departSpeed="max">
        <route edges="-13660322 -13660074#4 -13660074#3 -13660074#2 566434374 13661436#15 13661436#16 13661436#17 13661436#19 13661436#20 13661436#21 990643554 990643553#2 889379053#0 13660411 564193772 13657895#0 13657895#1 13659341#0 -13659341#2"/>
    </vehicle>
    <vehicle id="veh2" type="veh_passenger" depart="2.01" departLane="best">
        <route edges="13657695#7 127788476#3 127788476#7 127788476#8 127788476#9 127788476#11 127788476#12 127788476#13 -990639620#1 -13659835#5 -13659835#3 -13659835#2 127788516 1111262039#3-AddedOnRampEdge 1111262039#3 -754258442 -754258443 -754250910#2 -754250910#1 -754250910#0 -754258444 -754258445 -127788480#8 -127788480#7 -127788480#4 -127788480#2 -127788480#1 -127788480#0 -13657580#9 -13657580#8 -13657580#7"/>
    </vehicle>
    <vehicle id="veh3" type="veh_passenger" depart="3.02" departLane="best">
        <route edges="-13661660#2 -13661660#1 -13661660#0 -331110661#0 331110663 -13659133 -127788480#4 -127788480#2 -127788480#1 -127788480#0 191703463#0 191703463#1 191703463#2 -13661360#6 -13661360#5 -13661360#4 -13661360#3 -13661360#2 -13661360#1 -13658934#10 1148414314#0 1148414314#1 13660546#2 13660546#3 13656603 13655510#2 13655510#3 13655510#4 -13655673#0 -13655679#0"/>
    </vehicle>
    <vehicle id="veh4" type="veh_passenger" depart="4.03" departLane="best">
        <route edges="-751718230#0 -13658565 -751718226 -754258445 -127788480#8"/>
    </vehicle>
    <vehicle id="veh5" type="veh_passenger" depart="5.03" departLane="best">
        <route edges="13659147#3 13661360#6 -191703463#2 -191703463#1 -191703463#0 754258446 127788480#1 127788480#2 127788480#3 127788480#5 127788480#8 754258445 754258444 754250910#0 754250910#1 754250910#2 754258443 754258442 1111262037 1111262036 1111262038 1111262033 1111262032 1111262029"/>
    </vehicle>
    <vehicle id="veh6" type="veh_passenger" depart="6.04" departLane="best">
        <route edges="127788480#8 754258445 751718226 13658565 751718230#0 751718230#1 751718230#2 751718230#4 751718230#5 751718230#6 751718230#7 751718230#8 751718230#9 751718230#10 751718230#11 751718230#12 13661436#6 13661436#7 13661436#8 13661436#10 13661436#12 13661436#13 13661436#15 13661436#16 13661436#17 13661436#19 13661436#20 -13658934#1"/>
    </vehicle>
    <vehicle id="veh7" type="veh_passenger" depart="7.04" departLane="best" departSpeed="max">
        <route edges="13655558#0 -13656937#3 -1303835530#14 -1303835530#13 -1303835530#9 -1303835530#8 -1303835530#7 -1303835530#5 -1303835530#3 -1303835530#1 -1303835546 -889379053#3 990643553#0 -990643554 -13661436#21 -13661436#20 -13661436#19 -13661436#17 -13661436#16 -13661436#15 -13661436#13 -13661436#12 -13661436#11 -13661436#9 -13661436#7 -13661436#6 -13661436#5 -13661436#4 -13661436#3 -13661436#2 -13661436#1 -13661436#0 13661360#0 13661360#2 13661360#3 13661360#4 13661360#5 13661360#6 -191703463#2 -191703463#1 -191703463#0 754258446 127788480#1 127788480#2"/>
    </vehicle>
    <vehicle id="veh8" type="veh_passenger" depart="8.05" departLane="best">
        <route edges="-13659263#2 -13659263#1 -13659263#0 -754258443 -754250910#2 564184931 751718230#0 751718230#1 751718230#2 751718230#4 751718230#5 751718230#6 751718230#7 751718230#8 751718230#9 751718230#10 751718230#11 751718230#12 751718230#13 751718230#14 13658001 13658934#9 1148414314#0 1148414314#1 13660546#2 13660546#3 13656603 -13655510#1"/>
    </vehicle>
    <vehicle id="veh9" type="veh_passenger" depart="9.06" departLane="best">
        <route edges="13659946#3 13659111#3 13655604 562655363#2 562655363#3 562655363#4 -889379053#3 990643553#0 -990643554 -13661436#21 -13661436#20 -13661436#19 -13661436#17 -13661436#16 -13661436#15 -13661436#13 -13661436#12 -13661436#11 -13661436#9 -13661436#7 -1148414310#1"/>
    </vehicle>
    <vehicle id="veh10" type="veh_passenger" depart="10.06" departLane="best">
        <route edges="-13659928 -13660489#0 -13657558#1 -1303835530#5 -1303835530#3 -1303835530#1 -1303835546 -889379053#3 990643553#0 -990643554 -13661436#21 -13661436#20 -13661436#19 -13661436#17 -13661436#16 -13661436#15 -13661436#13 13660074#0 13660074#1 13660074#3 -13660725#1 13658344"/>
    </vehicle>
    <vehicle id="veh11" type="veh_passenger" depart="11.07" departLane="best">
        <route edges="-13661660#1 -13661660#0 -331110661#0 331110663 -13659133 -127788480#4 -127788480#2 -127788480#1 -127788480#0 -13657580#9 -13657580#8 -13657580#7 -13657580#6 -13657580#5 -13657580#4 -13657580#3 -13657580#2 -13657580#1"/>
    </vehicle>
    <vehicle id="veh12" type="veh_passenger" depart="12.08" departLane="best">
        <route edges="723275555#0 723275555#1 723275555#2 1111261997 1111261996 1111262001 1111262000 1111262005 1111262004 1111262010 1111262009#0 1111262009#1 1111262009#2 1111262015 1111262014 1111262020 1111262019 1111262031#0 1111262031#1 1111262030#0 1111262030#1-AddedOnRampEdge 1111262030#1 1111262035 1111262034 1111262039#0 1111262039#0-AddedOffRampEdge 1111262039#1 1111262039#2 1111262039#3-AddedOnRampEdge 1111262039#3 -754258442 -754258443 -754250910#2 -754250910#1 -754250910#0 -754258444 -754258445 -127788480#8 -127788480#7 -127788480#4 -127788480#2 -127788480#1 -127788480#0 191703463#0 191703463#1 191703463#2 -13661360#6 -13661360#5 -13661360#4 -13661360#3 -13661360#2 -13661360#1 13661436#0 13661436#1 13661436#2 -292808575#2"/>
    </vehicle>
    <vehicle id="veh13" type="veh_passenger" depart="13.08" departLane="best" departSpeed="max">
        <route edges="-13656307 -13655510#2 -13655510#1 -13655510#0 -13656381#0"/>
    </vehicle>
    <vehicle id="veh14" type="veh_passenger" depart="14.09" departLane="best">
        <route edges="-13660546#3 -13660546#2 -13660546#1 -1148414314#0 13658934#10 13661360#0 13661360#2 13661360#3 13661360#4 13661360#5 13661360#6 -191703463#2 -191703463#1 -191703463#0 754258446 127788480#1 13655756"/>
    </vehicle>
    <vehicle id="veh15" type="veh_passenger" depart="15.10" departLane="best">
        <route edges="13659943#1 -13655059#3 -13655059#2 -13655059#1 -13655112#0 -13656910#2 566868302 -13658679#6 -13658679#5 -13658679#4 -13658679#3 -13658679#2 -13658679#1 -13658679#0 13658960"/>
    </vehicle>
    <vehicle id="veh16" type="veh_passenger" depart="16.10" departLane="best">
        <route edges="1111262030#1-AddedOnRampEdge 1111262030#1 1111262035 1111262034 1111262039#0 1111262039#0-AddedOffRampEdge 1111262039#1 1111262039#2 1111262039#3-AddedOnRampEdge 1111262039#3 -754258442 -754258443 -754250910#2 564184931 751718230#0 751718230#1 751718230#2 751718230#4 751718230#5 751718230#6 751718230#7 751718230#8 751718230#9 751718230#10 751718230#11 751718230#12 751718230#13"/>
    </vehicle>
    <vehicle id="veh17" type="veh_passenger" depart="17.11" departLane="best">
        <route edges="-331110664 -331110661#6 -331110661#5 -331110661#4 -331110661#3 -331110661#2 -331110661#1 -331110661#0 331110663 -13659133 127788480#5 127788480#8 754258445 754258444 754250910#0 754250910#1 754250910#2 754258443 754258442 1111262037 1111262036 13659835#1 13659835#2 13659835#3 13659835#4 990639620#0 107331182#0 13659943#0 13659943#1 13659946#0 13656910#13 13659109#0 13655552#0 127788500#1"/>
    </vehicle>
    <vehicle id="veh18" type="veh_passenger" depart="18.11" departLane="best">
        <route edges="13660281 -13661835#1 -1303835530#1 -1303835546 -889379053#3 990643553#0 -990643554 -13661436#21 -13661436#20 -13661436#19 -13661436#17 -13661436#16 -13656418#0 13658934#7 13658934#9 1148414314#0 1148414314#1 13660546#2 -13656381#2"/>
    </vehicle>
    <vehicle id="veh19" type="veh_passenger" depart="19.12" departLane="best" departSpeed="max">
        <route edges="13661130 13657580#7 13657580#8 13657580#9 191703463#0 191703463#1 191703463#2 -13661360#6 -13661360#5 -13661360#4 -13661360#3 -13661360#2 -13661360#1 13661436#0 13661436#1 13661436#2 13661436#3 13661436#4 13661436#5 13661436#6 13661436#7 13661436#8 13661436#10 13661436#12 13661436#13 13661436#15 13661436#16 13661436#17 13654832#0 13654832#1"/>
    </vehicle>
    <vehicle id="veh20" type="veh_passenger" depart="20.13" departLane="best" departSpeed="max">
        <route edges="13656921#0 13656921#1 1111262000 1111262005 1111262004 1111262010 1111262009#0 1111262009#1 1111262009#2 1111262015 1111262014 1111262020 1111262019 1111262031#0 1111262026 -127788458#0 13659835#3 13659835#4 990639620#0 107331182#0 13659943#0 13659943#1 13659946#0 13659946#2 13659946#3 13659946#5 13659946#7 -13660168#1 -13660168#0 -127788549"/>
    </vehicle>
    <vehicle id="veh21" type="veh_passenger" depart="21.13" departLane="best" departSpeed="max">
        <route edges="-13659473 13658679#3 13658679#4 13658679#5 13658679#6 566868303 13656910#2 13655112#0 13655059#0 13655059#2 13655059#3 127788476#11 127788476#12 127788476#13 -990639620#1 -13659835#5 -13659835#3 -13659835#2 127788516 1111262039#3-AddedOnRampEdge 1111262039#3 -754258442 -754258443 -754250910#2 -754250910#1 -754250910#0 -754258444 -751718228 -751718229 -13661249#0"/>
    </vehicle>
    <vehicle id="veh22" type="veh_passenger" depart="22.14" departLane="best">
        <route edges="-13655679#1 13655673#0 -13655510#4 -13655510#3 -13655510#2 -13656603 -13660546#3 -13660546#2 -13660546#1 -1148414314#0 -13658934#9 -13658001 -751718230#14 -751718230#13 -751718230#12 -751718230#11 -751718230#10 -751718230#9 -751718230#8 -751718230#7 -751718230#6 -751718230#5 -751718230#4 13659889#0"/>
    </vehicle>
    <vehicle id="veh23" type="veh_passenger" depart="23.15" departLane="best">
        <route edges="-13656436#1 -13656436#0 671661139#1 13661436#8 13661436#10 13661436#12 13661436#13 13661436#15 13661436#16 13661436#17 13661436#19 13661436#20 13661436#21 990643554 990643553#2 13656910#0 566868302 -13658679#6 -13658679#5 -13658679#4 -13658679#3 -13658679#2 -13660634#0"/>
    </vehicle>
    <vehicle id="veh24" type="veh_passenger" depart="24.15" departLane="best">
        <route edges="-13655059#9 13659946#0 13659946#2 -562655370#4 569817539 562655367#2 562655367#6 562655367#9 562655367#10 562655367#11 -13661835#2 -13661835#1 1303835530#2 1303835530#4 13657558#0 13658946#0 13658946#1 13658946#2 13658946#3"/>
    </vehicle>
    <vehicle id="veh25" type="veh_passenger" depart="25.16" departLane="best" departSpeed="max">
        <route edges="-292808580#2 -292808580#0 13659147#2 13659147#3 -13661360#5 -13661360#4 -13661360#3 -13661360#2 -13661360#1 13661436#0 13661436#1 13661436#2 13661436#3 13661436#4 13661436#5 13661436#6 13661436#7 13661436#8 13661436#10 13661436#12 13661436#13 13661436#15 13661436#16 13661436#17 13661436#19 13661436#20 13661436#21 990643554 990643553#2 889379053#0 1303835546 1303835530#0 1303835530#2 1303835530#4 13657558#0 13658946#0 13658946#1 13658946#2 13658946#3 13658946#4 13657778#1 -127788459#3 13658994#0 -13658994#2"/>
    </vehicle>
    <vehicle id="veh26" type="veh_passenger" depart="26.17" departLane="best" departSpeed="max">
        <route edges="-13660195 -751718230#13 13661436#6 13661436#7 13661436#8 13661436#10 13661436#12 13661436#13 13661436#15 13661436#16 13661436#17 13661436#19 13661436#20 13661436#21 990643554 990643553#2 889379053#0 13657691#0 13657691#1 13657691#2 13657691#4 562655370#0 562655370#1 562655370#6 562655370#7 562655370#8"/>
    </vehicle>
    <vehicle id="veh27" type="veh_passenger" depart="27.17" departLane="best" departSpeed="max">
        <route edges="13655558#0 -13656937#3 -1303835530#14 -1303835530#13 -1303835530#9 -1303835530#8 -1303835530#7 -1303835530#5 -1303835530#3 -1303835530#1 -1303835546 -889379053#3 990643553#0 -990643554 -13661436#21 -13661436#20 -13661436#19 -13661436#17 13656108#1 13656108#2 13656108#3"/>
    </vehicle>
    <vehicle id="veh28" type="veh_passenger" depart="28.18" departLane="best">
        <route edges="13657996#2 -331110661#6 -331110661#5 -331110661#4 -331110661#3 -331110661#2 -331110661#1 -331110661#0 331110663 -13659133 127788480#5 127788480#8 754258445 754258444 754250910#0 754250910#1 754250910#2 754258443 754258442 1111262037 1111262036 13659835#1 13659835#2 13659835#3 13659835#4 990639620#0 107331182#0 13659943#0 13659943#1 -13655059#3 -13655059#2 -13655059#1 -13655112#0 -13656910#2 566868302 -13658679#6 -13658679#5 -13658679#4 -13658679#3 -13658679#2 -13658679#1 -13658679#0 13658960"/>
    </vehicle>
    <vehicle id="veh29" type="veh_passenger" depart="29.19" departLane="best">
        <route edges="-13657695#9 -13657695#6 -13657695#3 -13657695#0 562655363#0 562655363#2 562655363#3 562655363#4 -889379053#3 990643553#0 -990643554 -13661436#21 -13661436#20 -13661436#19 -13661436#17 -13661436#16 -13661436#15 -13661436#13 -13661436#12 -13661436#11 -13661436#9 -13661436#7 -13661436#6 -751718230#12 -751718230#11 -751718230#10 -751718230#9 -751718230#8 -751718230#7 -751718230#6"/>
    </vehicle>
    <vehicle id="veh30" type="veh_passenger" depart="30.19" departLane="best" departSpeed="max">
        <route edges="754258448#0 754258448#1 754258447 191703463#0 191703463#1 191703463#2 -13661360#6 -13661360#5 -13661360#4 -13661360#3 -13661360#2 -13661360#1 -13658934#10 1148414314#0 1148414314#1 13660546#2 13660546#3 13660546#4 13660548 13655022 13656778#1"/>
    </vehicle>
    <vehicle id="veh31" type="veh_passenger" depart="31.20" departLane="best">
        <route edges="1111262039#0-AddedOffRampEdge 127788518 13659835#2 13659835#3 13659835#4 990639620#0 107331182#0 13659943#0 13659943#1 13659946#0 13659946#2 13659946#3 13659946#5 -13657695#9 -13657695#6"/>
    </vehicle>
    <vehicle id="veh32" type="veh_passenger" depart="32.20" departLane="best" departSpeed="max">
        <route edges="13660513 13658679#6 566868303 -13656910#0 990643553#0 -990643554 -13661436#21 -13661436#20 -13661436#19 -13661436#17 -13661436#16 -13661436#15 -13661436#13 13660074#0 13660074#1"/>
    </vehicle>
    <vehicle id="veh33" type="veh_passenger" depart="33.21" departLane="best" departSpeed="max">
        <route edges="-13659473 13658679#3 13658679#4 13658679#5 13658679#6 566868303 13656910#2 13655112#0 13655059#0 13655059#2"/>
    </vehicle>
    <vehicle id="veh34" type="veh_passenger" depart="34.22" departLane="best" departSpeed="max">
        <route edges="-13661337 -13660074#8 -13660074#7 -13660074#5 -13660074#4 -13660074#3 -13660074#2 566434374 13661436#15 -13656418#0 13658934#7 13658934#9 1148414314#0 1148414314#1"/>
    </vehicle>
    <vehicle id="veh35" type="veh_passenger" depart="35.22" departLane="best" departSpeed="max">
        <route edges="-13658960 13658679#0 13658679#1 13658679#2 13658679#3 13658679#4 13658679#5 13658679#6 566868303 -13656910#0 889379053#0 13660411 564193772"/>
    </vehicle>
    <vehicle id="veh36" type="veh_passenger" depart="36.23" departLane="best">
        <route edges="-13661436#0 13661360#0 13661360#2 13661360#3 13661360#4 13661360#5 13661360#6 -191703463#2 -191703463#1 -191703463#0 754258446 127788480#1 127788480#2 127788480#3 13659133 331110662 331110661#0 13661660#0"/>
    </vehicle>
    <vehicle id="veh37" type="veh_passenger" depart="37.24" departLane="best">
        <route edges="-13656108#1 -13661436#16 -13661436#15 -13661436#13 -13661436#12 -13661436#11 -13661436#9 -13661436#7 -13661436#6 -13661436#5 -13661436#4 -13661436#3 -13661436#2 -13661436#1 -13661436#0 13661360#0 13661360#2 13661360#3 13661360#4 13661360#5 13661360#6 -191703463#2 564199523 -754258448#0"/>
    </vehicle>
    <vehicle id="veh38" type="veh_passenger" depart="38.24" departLane="best">
        <route edges="292808575#0 -13661436#2 -13661436#1 -13661436#0 13661360#0 13661360#2 13661360#3 13661360#4 13661360#5 13661360#6 -191703463#2 -191703463#1 -191703463#0 754258446 127788480#1 127788480#2 127788480#3 127788480#5 127788480#8 754258445 754258444 754250910#0 754250910#1 754250910#2 754258443 754258442 1111262037 1111262036 1111262038 1111262033 1111262032 1111262029 1111262028#0 1111262028#1 1111262022#0 1111262022#1-AddedOnRampEdge 1111262022#1 1111262021 1111262017 1111262016 1111262013 1111262012 1111262007 1111262006 1111262003 1111262002#0 1111261999 435253701#2 1111262000 1111262005 1111262004 1111262010 1111262009#0 1111262009#1 1111262009#2"/>
    </vehicle>
    <vehicle id="veh39" type="veh_passenger" depart="39.25" departLane="best" departSpeed="max">
        <route edges="-13660185#3 13657778#0 13657778#1 13657817#0 13657817#1 127788445 1303835530#9 -13660176#11 -13660176#10 -13660176#7 -13660176#5 -13660176#1 -13660176#0"/>
    </vehicle>
    <vehicle id="veh40" type="veh_passenger" depart="40.26" departLane="best">
        <route edges="1111262039#3 1111262037 1111262036 13659835#1 13659835#2 13659835#3 13659835#4 990639620#0 107331182#0 13659943#0 13659943#1 -13655059#3 -13655059#2 -13655059#1 -13655112#0 -13656910#2 566868302 -13658679#6 -13660513"/>
    </vehicle>
    <vehicle id="veh41" type="veh_passenger" depart="41.26" departLane="best">
        <route edges="127788476#9 127788476#11 127788476#12 127788476#13 -990639620#1 -13659835#5 -13659835#3 -13659835#2 127788516 1111262039#3-AddedOnRampEdge 1111262039#3 -754258442 -754258443 -754250910#2 -754250910#1 -754250910#0 -754258444 -754258445 -127788480#8 -127788480#7 -127788480#4 -127788480#2 -127788480#1 -127788480#0 191703463#0 191703463#1 191703463#2 -13661360#6 -13661360#5 -13661360#4 -13661360#3 292808568"/>
    </vehicle>
    <vehicle id="veh42" type="veh_passenger" depart="42.27" departLane="best" departSpeed="max">
        <route edges="-562903246 -1303835530#13 -13660176#11 127788477 127788476#0 127788476#2 127788476#3 127788476#7 127788476#8 127788476#9 127788476#11 127788476#12 127788476#13 -990639620#1 -13659835#5 -13659835#3 -13659835#2 127788516 1111262039#3-AddedOnRampEdge 1111262039#3 -754258442 13659263#0"/>
    </vehicle>
    <vehicle id="veh43" type="veh_passenger" depart="43.27" departLane="best">
        <route edges="990643553#2 13656910#0 13656910#2 13655112#0 13655059#0 13655059#2 13655059#3 127788476#11 127788476#12 127788476#13 -990639620#1 -13659835#5 -13659835#3 -13659835#2 -13659835#1 1111262038"/>
    </vehicle>
    <vehicle id="veh44" type="veh_passenger" depart="44.28" departLane="best" departSpeed="max">
        <route edges="-13656307 -13655510#2 -13656603 -13660546#3 -13660546#2 -13660546#1 -1148414314#0 -13658934#9 -13658934#8 13656418#0 13661436#16 13661436#17 13661436#19 13661436#20 13661436#21 990643554 990643553#2 889379053#0 1303835546 1303835530#0 1303835530#2 1303835530#4 1303835530#6 1303835530#8 1303835530#9 1303835530#10"/>
    </vehicle>
    <vehicle id="veh45" type="veh_passenger" depart="45.29" departLane="best" departSpeed="max">
        <route edges="-13656476 751718230#11 751718230#12 13661436#6 13661436#7 13661436#8 13661436#10 13661436#12 13661436#13 13661436#15 13661436#16 13661436#17 13661436#19 13661436#20 13661436#21 990643554 990643553#2 13656910#0 13656910#2 13656910#3 13656910#8 13656910#9 13656458#2"/>
    </vehicle>
    <vehicle id="veh46" type="veh_passenger" depart="46.29" departLane="best">
        <route edges="13659263#2 1111262029 1111262028#0 1111262028#1 1111262022#0 1111262022#1-AddedOnRampEdge 1111262022#1 1111262021 1111262017 1111262016 1111262013 1111262012 1111262007 1111262006 1111262003 1111262002#0 1111262002#1 1111261995#0 1111261995#1-AddedOnRampEdge 1111261995#1 1111261994 245372796 1111261992 1111261989 1111261988"/>
    </vehicle>
    <vehicle id="veh47" type="veh_passenger" depart="47.30" departLane="best">
        <route edges="-13655059#9 127788476#11 127788476#12 127788476#13 -990639620#1 -13659835#5 -13660074#10 -13660074#9 -13660074#8 -13660074#7 -13660074#5 -13660074#4 -13660725#1 -13660725#0 -751718230#9"/>
    </vehicle>
    <vehicle id="veh48" type="veh_passenger" depart="48.31" departLane="best">
        <route edges="990639620#0 107331182#0 13659943#0 13659943#1 13659946#0 13659946#2 13659946#3 13659946#5 13659946#7 13659946#9 -127788477 13660176#11 -1303835530#9 -127788445 -13657817#1 -13657817#0 -127788459#3 -127788459#2 127788459#0"/>
    </vehicle>
    <vehicle id="veh49" type="veh_passenger" depart="49.31" departLane="best">
        <route edges="751718230#8 751718230#9 751718230#10 751718230#11 751718230#12 -13661436#5 -13661436#4 -13661436#3"/>
    </vehicle>
    <vehicle id="veh50" type="veh_passenger" depart="50.32" departLane="best" departSpeed="max">
        <route edges="-127788478#1 13658679#1 13658679#2 13658679#3 13658679#4 13658679#5 13658679#6 566868303 -13656910#0 990643553#0 -990643554 -13661436#21 -13661436#20 -13661436#19 -13661436#17 -13661436#16 -13656418#0 13658934#7 13658934#9 13658934#10"/>
    </vehicle>
    <vehicle id="veh51" type="veh_passenger" depart="51.33" departLane="best">
        <route edges="-13656859#1 127788476#2 127788476#3 127788476#7 127788476#8"/>
    </vehicle>
    <vehicle id="veh52" type="veh_passenger" depart="52.33" departLane="best" departSpeed="max">
        <route edges="-13660195 -751718230#13 13661436#6 13661436#7 13661436#8 13661436#10 13661436#12 13661436#13 13661436#15 13661436#16 13661436#17 13661436#19 13661436#20 13661436#21 990643554 990643553#2 889379053#0 1303835546 1303835530#0 13661835#0 13661835#2 13661835#3 13660168#0 13660168#1 13656859#1"/>
    </vehicle>
    <vehicle id="veh53" type="veh_passenger" depart="53.34" departLane="best" departSpeed="max">
        <route edges="-13656476 -751718230#10 -751718230#9 -751718230#8 -751718230#7 -751718230#6 -751718230#5 -751718230#4 -751718230#2 -751718230#1 -751718230#0 -13658565 -751718226 754258444 754250910#0 754250910#1 754250910#2 754258443 754258442 1111262037 1111262036 1111262038 1111262033 1111262032 1111262029 1111262028#0 1111262028#1 1111262022#0 1111262022#1-AddedOnRampEdge 1111262022#1 1111262021 1111262017 1111262016 1111262013 1111262012 1111262007 1111262006 1111262003 1111262002#0 1111262002#1 1111261995#0 1111261995#1-AddedOnRampEdge"/>
    </vehicle>
    <vehicle id="veh54" type="veh_passenger" depart="54.34" departLane="best" departSpeed="max">
        <route edges="1111261983 1111261986 1111261985 1111261990 723275555#0 723275555#1 723275555#2 1111261997 1111261996 1111262001 1111262000 1111262005 1111262004 1111262010 1111262009#0 1111262009#1 1111262009#2 1111262015 1111262014 1111262020 1111262019 1111262031#0 1111262031#1 1111262030#0 1111262030#1-AddedOnRampEdge 1111262030#1 1111262035 1111262034 1111262039#0 1111262039#0-AddedOffRampEdge 1111262039#1 1111262039#2 1111262039#3-AddedOnRampEdge 1111262039#3 -754258442 -754258443 -754250910#2 564184931 751718230#0 751718230#1 751718230#2 751718230#4 751718230#5 751718230#6 751718230#7 751718230#8 751718230#9 751718230#10 751718230#11 751718230#12 751718230#13 751718230#14 13658001 13658934#9 1148414314#0 -13656362#1 568036823 568036824#0"/>
    </vehicle>
    <vehicle id="veh55" type="veh_passenger" depart="55.35" departLane="best" departSpeed="max">
        <route edges="13661371 751718230#4 751718230#5 751718230#6 751718230#7 751718230#8 751718230#9 751718230#10 751718230#11 751718230#12 13661436#6 13661436#7 13661436#8 13661436#10 13661436#12 13661436#13 13661436#15 13661436#16 13661436#17 13661436#19 13661436#20 13661436#21 990643554 990643553#2 13656910#0 566868302 -13658679#6 -13660513"/>
    </vehicle>
    <vehicle id="veh56" type="veh_passenger" depart="56.36" departLane="best">
        <route edges="1111262009#1 1111262009#2 1111262015 1111262014 1111262020 1111262019 1111262031#0 1111262031#1 -13661159#2 1111262022#0 1111262022#1-AddedOnRampEdge 1111262022#1 1111262021 1111262017 1111262016 1111262013 1111262012 1111262007 1111262006 1111262003 1111262002#0 1111262002#1 -435253701#2 -435253701#1 -13658399#1 -13658399#0"/>
    </vehicle>
    <vehicle id="veh57" type="veh_passenger" depart="57.36" departLane="best" departSpeed="max">
        <route edges="292808574 13661360#4 13661360#5 13661360#6 -191703463#2 -191703463#1 -191703463#0 754258446 127788480#1 127788480#2 127788480#3 13659133 331110662 331110661#0 13661660#0 13661660#1"/>
    </vehicle>
    <vehicle id="veh58" type="veh_passenger" depart="58.37" departLane="best">
        <route edges="-13660551#4 -13660551#3 -13660551#2 -13660551#1 -13660551#0 -13660546#4 13656603"/>
    </vehicle>
    <vehicle id="veh59" type="veh_passenger" depart="59.38" departLane="best" departSpeed="max">
        <route edges="127788508#0 -13655059#10 -13655059#9 13659946#0 13659946#2 -562655370#4 569817539 562655367#2 562655367#6 562655367#9 562655367#10 562655367#11 -13661835#2 -13661835#1 1303835530#2 1303835530#4 13657558#0 13657558#2 -13657558#4"/>
    </vehicle>
    <vehicle id="veh60" type="veh_passenger" depart="60.38" departLane="best" departSpeed="max">
        <route edges="13658879#0 13658879#1 -13661360#4 -13661360#3 -13661360#2 -13661360#1 13661436#0 13661436#1 13661436#2 13661436#3 13661436#4 13661436#5 13661436#6 13661436#7 13661436#8 13661436#10 13661436#12 13661436#13 13661436#15 13661436#16 13661436#17 13661436#19 13661436#20 13661436#21 990643554 990643553#2 13656910#0 566868302 -13658679#6 -13658679#5 -13658679#4 -13658679#3 -13658679#2 -13658679#1 127788478#1"/>
    </vehicle>
    <vehicle id="veh61" type="veh_passenger" depart="61.39" departLane="best">
        <route edges="13660551#5 1111261985 1111261990 723275555#0 723275555#1 723275555#2 1111261997 1111261996 1111262001 1111262000 1111262005 1111262004 1111262010 1111262009#0 1111262009#1 1111262009#2 1111262015 1111262014 1111262020 1111262019 1111262031#0 1111262031#1 1111262030#0 1111262030#1-AddedOnRampEdge 1111262030#1 1111262035 1111262034 1111262039#0 1111262039#0-AddedOffRampEdge 1111262039#1 1111262039#2 1111262039#3-AddedOnRampEdge 1111262039#3 -754258442 -754258443 -754250910#2 -754250910#1 -754250910#0 -754258444 -754258445 -127788480#8 -127788480#7 -127788480#4 -127788480#2 -127788480#1 -127788480#0 191703463#0 191703463#1 191703463#2 -13661360#6 -13661360#5 -13661360#4 -13661360#3 -13661360#2 -292808569"/>
    </vehicle>
    <vehicle id="veh62" type="veh_passenger" depart="62.40" departLane="best">
        <route edges="127788480#2 127788480#3 127788480#5 127788480#8 754258445 754258444 754250910#0 754250910#1 754250910#2 754258443 754258442 1111262037 1111262036 13659835#1 13659835#2 13659835#3 13659835#4 990639620#0 107331182#0 13659943#0 13659943#1 13659946#0 13659946#2 -562655370#4 569817539 562655367#2 562655367#6 562655367#9 562655367#10"/>
    </vehicle>
    <vehicle id="veh63" type="veh_passenger" depart="63.40" departLane="best">
        <route edges="13661436#12 13661436#13 13661436#15 13661436#16 13661436#17 13661436#19 13661436#20 13661436#21 990643554 990643553#2 13656910#0 566868302 -13658679#6 -13658679#5 -13658679#4 -13658679#3 -13658679#2 13660634#1"/>
    </vehicle>
    <vehicle id="veh64" type="veh_passenger" depart="64.41" departLane="best" departSpeed="max">
        <route edges="-13660747 -13660074#5 -13660074#4 -13660725#1 -13660725#0 -751718230#9 -751718230#8 -751718230#7 -751718230#6 -751718230#5 -751718230#4 13659889#0 13659889#1 13654808#0 -13654810"/>
    </vehicle>
    <vehicle id="veh65" type="veh_passenger" depart="65.41" departLane="best">
        <route edges="13661436#10 13661436#12 13661436#13 13661436#15 13661436#16 13661436#17 13661436#19 13661436#20 13661436#21 990643554 990643553#2 13656910#0 13656910#2 13655112#0 13655059#0 13655059#2 13655059#3 127788476#11 127788476#12 564924387#0 564924387#1 564924387#2 564924387#4"/>
    </vehicle>
    <vehicle id="veh66" type="veh_passenger" depart="66.42" departLane="best">