<?xml version="1.0" encoding="UTF-8"?>

<!-- generated on 2025-04-21 14:21:47.792114 by findAllRoutes.py v1_22_0+0002-63e50f52594
  options: -n osm.net.xml.gz -o new.rou.xml
-->

<routes xmlns:xsi="http://www.w3.org/2001/XMLSchema-instance" xsi:noNamespaceSchemaLocation="http://sumo.dlr.de/xsd/routes_file.xsd">
    <route id="0" edges="-107771217#0"/>
    <route id="1" edges="-107771217#1"/>
    <route id="2" edges="-107771235#1"/>
    <route id="3" edges="-107771235#10"/>
    <route id="4" edges="-107771235#2"/>
    <route id="5" edges="-107771235#3"/>
    <route id="6" edges="-107771235#5"/>
    <route id="7" edges="-107771235#6"/>
    <route id="8" edges="-107771235#7"/>
    <route id="9" edges="-107771235#9"/>
    <route id="10" edges="-107771269#0"/>
    <route id="11" edges="-107771269#1"/>
    <route id="12" edges="-107771269#2"/>
    <route id="13" edges="-107771269#4"/>
    <route id="14" edges="-1103221333#0"/>
    <route id="15" edges="-1103221333#1"/>
    <route id="16" edges="-1103221333#2"/>
    <route id="17" edges="-1103221333#3"/>
    <route id="18" edges="-1103221333#5"/>
    <route id="19" edges="-1103221333#6"/>
    <route id="20" edges="-202957305#0"/>
    <route id="21" edges="-202957305#1"/>
    <route id="22" edges="-202957305#2"/>
    <route id="23" edges="-202957325#0"/>
    <route id="24" edges="-202957325#1"/>
    <route id="25" edges="-202957325#2"/>
    <route id="26" edges="-202957350#0"/>
    <route id="27" edges="-202957350#1"/>
    <route id="28" edges="-202957359#0"/>
    <route id="29" edges="-202957359#1"/>
    <route id="30" edges="-202957359#2"/>
    <route id="31" edges="-202957359#3"/>
    <route id="32" edges="-202957359#4"/>
    <route id="33" edges="-202957359#5"/>
    <route id="34" edges="-202957371"/>
    <route id="35" edges="-202957372"/>
    <route id="36" edges="-202957373#0"/>
    <route id="37" edges="-202957373#1"/>
    <route id="38" edges="-202957373#2"/>
    <route id="39" edges="-202957373#3"/>
    <route id="40" edges="-202957380"/>
    <route id="41" edges="-8846178"/>
    <route id="42" edges="-8846222#0"/>
    <route id="43" edges="-8846222#1"/>
    <route id="44" edges="-8846222#2"/>
    <route id="45" edges="-8846222#3"/>
    <route id="46" edges="-8846222#5"/>
    <route id="47" edges="-8846831"/>
    <route id="48" edges="-8847360"/>
    <route id="49" edges="-8847900"/>
    <route id="50" edges="-8848994#0"/>
    <route id="51" edges="-8848994#1"/>
    <route id="52" edges="-8849028"/>
    <route id="53" edges="-8849034"/>
    <route id="54" edges="-8849038"/>
    <route id="55" edges="-8849054"/>
    <route id="56" edges="-8849211"/>
    <route id="57" edges="-8849614"/>
    <route id="58" edges="-8849643"/>
    <route id="59" edges="-8849652#0"/>
    <route id="60" edges="-8849652#2"/>
    <route id="61" edges="-8849652#3"/>
    <route id="62" edges="-8849652#4"/>
    <route id="63" edges="-8849652#5"/>
    <route id="64" edges="-8849652#6"/>
    <route id="65" edges="-8849652#7"/>
    <route id="66" edges="-8849652#8"/>
    <route id="67" edges="-8849652#9"/>
    <route id="68" edges="-8849774"/>
    <route id="69" edges="-8849849#0"/>
    <route id="70" edges="-8849849#3"/>
    <route id="71" edges="-8849849#4"/>
    <route id="72" edges="-8849849#5"/>
    <route id="73" edges="-8849849#6"/>
    <route id="74" edges="-8849849#7"/>
    <route id="75" edges="-8849852"/>
    <route id="76" edges="-8849933#0"/>
    <route id="77" edges="-8849933#1"/>
    <route id="78" edges="-8849958#0"/>
    <route id="79" edges="-8849958#1"/>
    <route id="80" edges="-8849960"/>
    <route id="81" edges="-8850107"/>
    <route id="82" edges="-8850360"/>
    <route id="83" edges="-8850547#0"/>
    <route id="84" edges="-8850547#1"/>
    <route id="85" edges="-8850611"/>
    <route id="86" edges="-8850614"/>
    <route id="87" edges="-8850627#2"/>
    <route id="88" edges="-8850885"/>
    <route id="89" edges="-8850947"/>
    <route id="90" edges="-8851238"/>
    <route id="91" edges="-8851293"/>
    <route id="92" edges="-8851298#0"/>
    <route id="93" edges="-8851298#1"/>
    <route id="94" edges="-8851298#2"/>
    <route id="95" edges="-8851298#3"/>
    <route id="96" edges="-8851300"/>
    <route id="97" edges="-8851326#0"/>
    <route id="98" edges="-8851326#1"/>
    <route id="99" edges="-8851364"/>
    <route id="100" edges="-8851370#0"/>
    <route id="101" edges="-8851370#1"/>
    <route id="102" edges="-8851370#2"/>
    <route id="103" edges="-8851370#3"/>
    <route id="104" edges="-8851370#4"/>
    <route id="105" edges="-8851370#5"/>
    <route id="106" edges="-8851370#6"/>
    <route id="107" edges="-8851470#0"/>
    <route id="108" edges="-8851470#1"/>
    <route id="109" edges="-8852013"/>
    <route id="110" edges="-8852021"/>
    <route id="111" edges="-8852100#0"/>
    <route id="112" edges="-8852100#1"/>
    <route id="113" edges="-8852100#2"/>
    <route id="114" edges="-8852100#3"/>
    <route id="115" edges="-8852297#1"/>
    <route id="116" edges="-8852308#0"/>
    <route id="117" edges="-8852308#1"/>
    <route id="118" edges="-8852308#2"/>
    <route id="119" edges="-8852308#3"/>
    <route id="120" edges="-8852308#4"/>
    <route id="121" edges="-8852308#6"/>
    <route id="122" edges="-8852460#0"/>
    <route id="123" edges="-8852460#2"/>
    <route id="124" edges="-8852465"/>
    <route id="125" edges="-8852597"/>
    <route id="126" edges="-8852605"/>
    <route id="127" edges="-8852763"/>
    <route id="128" edges="-8852904"/>
    <route id="129" edges="-8852917#0"/>
    <route id="130" edges="-8852917#1"/>
    <route id="131" edges="-8852932#0"/>
    <route id="132" edges="-8852932#2"/>
    <route id="133" edges="-8853068#0"/>
    <route id="134" edges="-8853068#1"/>
    <route id="135" edges="-8853068#2"/>
    <route id="136" edges="-8853068#6"/>
    <route id="137" edges="-8853481#0"/>
    <route id="138" edges="-8853482#0"/>
    <route id="139" edges="-8853482#1"/>
    <route id="140" edges="-8853486#0"/>
    <route id="141" edges="-8853486#1"/>
    <route id="142" edges="-8853515#0"/>
    <route id="143" edges="-8853515#1"/>
    <route id="144" edges="-8853515#2"/>
    <route id="145" edges="-8853519#0"/>
    <route id="146" edges="-8853519#1"/>
    <route id="147" edges="-8853929"/>
    <route id="148" edges="-8853936"/>
    <route id="149" edges="-8854060"/>
    <route id="150" edges="-8854261"/>
    <route id="151" edges="-8854466#0"/>
    <route id="152" edges="-8854466#2"/>
    <route id="153" edges="-8854466#3"/>
    <route id="154" edges="-8854504#0"/>
    <route id="155" edges="-8854504#1"/>
    <route id="156" edges="-8854504#2"/>
    <route id="157" edges="-8854689#0"/>
    <route id="158" edges="-8854689#1"/>
    <route id="159" edges="-8854714#1"/>
    <route id="160" edges="-8854714#2"/>
    <route id="161" edges="-8854843"/>
    <route id="162" edges="-8854845"/>
    <route id="163" edges="-8854982"/>
    <route id="164" edges="-8855069"/>
    <route id="165" edges="-8855071"/>
    <route id="166" edges="-8855074"/>
    <route id="167" edges="-8855220#1"/>
    <route id="168" edges="-8855417"/>
    <route id="169" edges="-8855420"/>
    <route id="170" edges="-8855496#0"/>
    <route id="171" edges="-8855496#2"/>
    <route id="172" edges="-8855496#3"/>
    <route id="173" edges="-8855496#4"/>
    <route id="174" edges="-8855621#0"/>
    <route id="175" edges="-8855621#1"/>
    <route id="176" edges="-8855658"/>
    <route id="177" edges="-8855717#0"/>
    <route id="178" edges="-8855717#1"/>
    <route id="179" edges="-8855717#2"/>
    <route id="180" edges="-8855717#3"/>
    <route id="181" edges="-8855717#4"/>
    <route id="182" edges="-8855766"/>
    <route id="183" edges="-8856577#0"/>
    <route id="184" edges="-8856577#1"/>
    <route id="185" edges="-8856577#2"/>
    <route id="186" edges="-8856609#0"/>
    <route id="187" edges="-8856609#2"/>
    <route id="188" edges="-8856630"/>
    <route id="189" edges="-8856879"/>
    <route id="190" edges="-8856977#0"/>
    <route id="191" edges="-8856977#1"/>
    <route id="192" edges="-8856977#2"/>
    <route id="193" edges="-8857161#0"/>
    <route id="194" edges="-8857161#1"/>
    <route id="195" edges="-8857161#2"/>
    <route id="196" edges="-8857161#3"/>
    <route id="197" edges="-8857223"/>
    <route id="198" edges="-8857323"/>
    <route id="199" edges="-8857426"/>
    <route id="200" edges="-8857453"/>
    <route id="201" edges="-8857459#0"/>
    <route id="202" edges="-8857459#1"/>
    <route id="203" edges="-8857459#2"/>
    <route id="204" edges="-8857459#3"/>
    <route id="205" edges="-8857459#4"/>
    <route id="206" edges="-8857459#5"/>
    <route id="207" edges="-8857519#0"/>
    <route id="208" edges="-8857519#1"/>
    <route id="209" edges="-8857580"/>
    <route id="210" edges="-8857582#0"/>
    <route id="211" edges="-8857582#1"/>
    <route id="212" edges="-8857591"/>
    <route id="213" edges="-8857638#1"/>
    <route id="214" edges="-8857689"/>
    <route id="215" edges="-8857691#0"/>
    <route id="216" edges="-8857691#1"/>
    <route id="217" edges="-8857765"/>
    <route id="218" edges="-8857807#0"/>
    <route id="219" edges="-8857807#1"/>
    <route id="220" edges="-8857807#2"/>
    <route id="221" edges="-8857889"/>
    <route id="222" edges="-8858130"/>
    <route id="223" edges="-8858886#0"/>
    <route id="224" edges="-8858886#1"/>
    <route id="225" edges="-8858886#2"/>
    <route id="226" edges="-8858886#3"/>
    <route id="227" edges="-8859125#0"/>
    <route id="228" edges="-8859125#1"/>
    <route id="229" edges="-8859125#2"/>
    <route id="230" edges="-8859368#0"/>
    <route id="231" edges="-8859368#1"/>
    <route id="232" edges="-8859368#2"/>
    <route id="233" edges="-8859368#3"/>
    <route id="234" edges="-8859410#0"/>
    <route id="235" edges="-8859410#1"/>
    <route id="236" edges="-8859410#11"/>
    <route id="237" edges="-8859410#12"/>
    <route id="238" edges="-8859410#2"/>
    <route id="239" edges="-8859410#5"/>
    <route id="240" edges="-8859410#6"/>
    <route id="241" edges="-8859410#7"/>
    <route id="242" edges="-8859410#8"/>
    <route id="243" edges="-8859410#9"/>
    <route id="244" edges="-8859643#0"/>
    <route id="245" edges="-8859643#1"/>
    <route id="246" edges="-8859647#0"/>
    <route id="247" edges="-8859647#1"/>
    <route id="248" edges="-8860178"/>
    <route id="249" edges="-8860281#0"/>
    <route id="250" edges="-8860281#1"/>
    <route id="251" edges="-8860443#0"/>
    <route id="252" edges="-8860445#0"/>
    <route id="253" edges="-8860445#1"/>
    <route id="254" edges="-8860445#2"/>
    <route id="255" edges="-8860445#3"/>
    <route id="256" edges="-8860445#4"/>
    <route id="257" edges="-8860445#5"/>
    <route id="258" edges="-8860445#6"/>
    <route id="259" edges="-8860445#7"/>
    <route id="260" edges="-8860445#8"/>
    <route id="261" edges="-8860445#9"/>
    <route id="262" edges="-8860464#0"/>
    <route id="263" edges="-8860464#1"/>
    <route id="264" edges="-8860464#2"/>
    <route id="265" edges="-8860464#3"/>
    <route id="266" edges="-8860486#1"/>
    <route id="267" edges="-8860538#1"/>
    <route id="268" edges="-8860538#2"/>
    <route id="269" edges="-8860543"/>
    <route id="270" edges="-8860836"/>
    <route id="271" edges="-8860849#0"/>
    <route id="272" edges="-8860849#1"/>
    <route id="273" edges="-8860849#3"/>
    <route id="274" edges="-8860849#5"/>
    <route id="275" edges="-8860849#6"/>
    <route id="276" edges="-8860849#7"/>
    <route id="277" edges="-8860849#9"/>
    <route id="278" edges="-8860938"/>
    <route id="279" edges="-8861159#0"/>
    <route id="280" edges="-8861159#3"/>
    <route id="281" edges="-8861161"/>
    <route id="282" edges="-8861255#0"/>
    <route id="283" edges="-8861255#1"/>
    <route id="284" edges="-8861283"/>
    <route id="285" edges="107771217#0"/>
    <route id="286" edges="107771217#1"/>
    <route id="287" edges="107771235#0"/>
    <route id="288" edges="107771235#10"/>
    <route id="289" edges="107771235#2"/>
    <route id="290" edges="107771235#3"/>
    <route id="291" edges="107771235#4"/>
    <route id="292" edges="107771235#6"/>
    <route id="293" edges="107771235#7"/>
    <route id="294" edges="107771235#9"/>
    <route id="295" edges="107771269#0"/>
    <route id="296" edges="107771269#1"/>
    <route id="297" edges="107771269#2"/>
    <route id="298" edges="107771269#3"/>
    <route id="299" edges="1103221333#1"/>
    <route id="300" edges="1103221333#2"/>
    <route id="301" edges="1103221333#3"/>
    <route id="302" edges="1103221333#5"/>
    <route id="303" edges="1103221333#6"/>
    <route id="304" edges="1213167245"/>
    <route id="305" edges="1213167246"/>
    <route id="306" edges="1213167247"/>
    <route id="307" edges="178945497"/>
    <route id="308" edges="178945504"/>
    <route id="309" edges="197464470#0"/>
    <route id="310" edges="197464478"/>
    <route id="311" edges="202957305#0"/>
    <route id="312" edges="202957305#1"/>
    <route id="313" edges="202957305#2"/>
    <route id="314" edges="202957325#0"/>
    <route id="315" edges="202957325#1"/>
    <route id="316" edges="202957325#2"/>
    <route id="317" edges="202957350#0"/>
    <route id="318" edges="202957350#1"/>
    <route id="319" edges="202957359#0"/>
    <route id="320" edges="202957359#1"/>
    <route id="321" edges="202957359#2"/>
    <route id="322" edges="202957359#3"/>
    <route id="323" edges="202957359#4"/>
    <route id="324" edges="202957359#5"/>
    <route id="325" edges="202957371"/>
    <route id="326" edges="202957372"/>
    <route id="327" edges="202957373#0"/>
    <route id="328" edges="202957373#1"/>
    <route id="329" edges="202957373#2"/>
    <route id="330" edges="202957373#3"/>
    <route id="331" edges="202957380"/>
    <route id="332" edges="8846178"/>
    <route id="333" edges="8846222#0"/>
    <route id="334" edges="8846222#1"/>
    <route id="335" edges="8846222#2"/>
    <route id="336" edges="8846222#3"/>
    <route id="337" edges="8846222#4"/>
    <route id="338" edges="8846831"/>
    <route id="339" edges="8847360"/>
    <route id="340" edges="8847512"/>
    <route id="341" edges="8847900"/>
    <route id="342" edges="8848994#0"/>
    <route id="343" edges="8848994#1"/>
    <route id="344" edges="8849028"/>
    <route id="345" edges="8849034"/>
    <route id="346" edges="8849038"/>
    <route id="347" edges="8849054"/>
    <route id="348" edges="8849211"/>
    <route id="349" edges="8849614"/>
    <route id="350" edges="8849643"/>
    <route id="351" edges="8849652#0"/>
    <route id="352" edges="8849652#2"/>
    <route id="353" edges="8849652#3"/>
    <route id="354" edges="8849652#4"/>
    <route id="355" edges="8849652#5"/>
    <route id="356" edges="8849652#6"/>
    <route id="357" edges="8849652#7"/>
    <route id="358" edges="8849652#8"/>
    <route id="359" edges="8849652#9"/>
    <route id="360" edges="8849774"/>
    <route id="361" edges="8849849#0"/>
    <route id="362" edges="8849849#1"/>
    <route id="363" edges="8849849#4"/>
    <route id="364" edges="8849849#5"/>
    <route id="365" edges="8849849#6"/>
    <route id="366" edges="8849849#7"/>
    <route id="367" edges="8849852"/>
    <route id="368" edges="8849933#0"/>
    <route id="369" edges="8849933#1"/>
    <route id="370" edges="8849958#0"/>
    <route id="371" edges="8849958#1"/>
    <route id="372" edges="8849960"/>
    <route id="373" edges="8850107"/>
    <route id="374" edges="8850146"/>
    <route id="375" edges="8850360"/>
    <route id="376" edges="8850547#0"/>
    <route id="377" edges="8850547#1"/>
    <route id="378" edges="8850611"/>
    <route id="379" edges="8850614"/>
    <route id="380" edges="8850627#0"/>
    <route id="381" edges="8850885"/>
    <route id="382" edges="8850947"/>
    <route id="383" edges="8851238"/>
    <route id="384" edges="8851293"/>
    <route id="385" edges="8851298#0"/>
    <route id="386" edges="8851298#1"/>
    <route id="387" edges="8851298#2"/>
    <route id="388" edges="8851298#3"/>
    <route id="389" edges="8851300"/>
    <route id="390" edges="8851326#0"/>
    <route id="391" edges="8851326#1"/>
    <route id="392" edges="8851364"/>
    <route id="393" edges="8851370#0"/>
    <route id="394" edges="8851370#1"/>
    <route id="395" edges="8851370#2"/>
    <route id="396" edges="8851370#3"/>
    <route id="397" edges="8851370#4"/>
    <route id="398" edges="8851370#5"/>
    <route id="399" edges="8851370#6"/>
    <route id="400" edges="8851470#0"/>
    <route id="401" edges="8851470#1"/>
    <route id="402" edges="8852013"/>
    <route id="403" edges="8852021"/>
    <route id="404" edges="8852100#0"/>
    <route id="405" edges="8852100#1"/>
    <route id="406" edges="8852100#2"/>
    <route id="407" edges="8852100#3"/>
    <route id="408" edges="8852297#0"/>
    <route id="409" edges="8852308#0"/>
    <route id="410" edges="8852308#1"/>
    <route id="411" edges="8852308#2"/>
    <route id="412" edges="8852308#3"/>
    <route id="413" edges="8852308#4"/>
    <route id="414" edges="8852308#5"/>
    <route id="415" edges="8852460#0"/>
    <route id="416" edges="8852460#2"/>
    <route id="417" edges="8852465"/>
    <route id="418" edges="8852597"/>
    <route id="419" edges="8852605"/>
    <route id="420" edges="8852763"/>
    <route id="421" edges="8852904"/>
    <route id="422" edges="8852917#0"/>
    <route id="423" edges="8852917#1"/>
    <route id="424" edges="8852932#0"/>
    <route id="425" edges="8852932#2"/>
    <route id="426" edges="8853068#0"/>
    <route id="427" edges="8853068#1"/>
    <route id="428" edges="8853068#2"/>
    <route id="429" edges="8853068#3"/>
    <route id="430" edges="8853481#0"/>
    <route id="431" edges="8853482#0"/>
    <route id="432" edges="8853482#1"/>
    <route id="433" edges="8853486#0"/>
    <route id="434" edges="8853486#1"/>
    <route id="435" edges="8853515#0"/>
    <route id="436" edges="8853515#1"/>
    <route id="437" edges="8853515#2"/>
    <route id="438" edges="8853519#0"/>
    <route id="439" edges="8853519#1"/>
    <route id="440" edges="8853929"/>
    <route id="441" edges="8853936"/>
    <route id="442" edges="8854060"/>
    <route id="443" edges="8854261"/>
    <route id="444" edges="8854466#0"/>
    <route id="445" edges="8854466#1"/>
    <route id="446" edges="8854466#3"/>
    <route id="447" edges="8854504#0"/>
    <route id="448" edges="8854504#1"/>
    <route id="449" edges="8854504#2"/>
    <route id="450" edges="8854689#0"/>
    <route id="451" edges="8854689#1"/>
    <route id="452" edges="8854714#0"/>
    <route id="453" edges="8854714#2"/>
    <route id="454" edges="8854843"/>
    <route id="455" edges="8854845"/>
    <route id="456" edges="8854982"/>
    <route id="457" edges="8855069"/>
    <route id="458" edges="8855071"/>
    <route id="459" edges="8855074"/>
    <route id="460" edges="8855220#0"/>
    <route id="461" edges="8855417"/>
    <route id="462" edges="8855420"/>
    <route id="463" edges="8855496#0"/>
    <route id="464" edges="8855496#1"/>
    <route id="465" edges="8855496#3"/>
    <route id="466" edges="8855496#4"/>
    <route id="467" edges="8855621#0"/>
    <route id="468" edges="8855621#1"/>
    <route id="469" edges="8855658"/>
    <route id="470" edges="8855717#0"/>
    <route id="471" edges="8855717#1"/>
    <route id="472" edges="8855717#2"/>
    <route id="473" edges="8855717#3"/>
    <route id="474" edges="8855717#4"/>
    <route id="475" edges="8855766"/>
    <route id="476" edges="8856577#0"/>
    <route id="477" edges="8856577#1"/>
    <route id="478" edges="8856577#2"/>
    <route id="479" edges="8856609#0"/>
    <route id="480" edges="8856609#2"/>
    <route id="481" edges="8856630"/>
    <route id="482" edges="8856879"/>
    <route id="483" edges="8856977#0"/>
    <route id="484" edges="8856977#1"/>
    <route id="485" edges="8856977#2"/>
    <route id="486" edges="8857005"/>
    <route id="487" edges="8857161#0"/>
    <route id="488" edges="8857161#1"/>
    <route id="489" edges="8857161#2"/>
    <route id="490" edges="8857161#3"/>
    <route id="491" edges="8857223"/>
    <route id="492" edges="8857323"/>
    <route id="493" edges="8857426"/>
    <route id="494" edges="8857452"/>
    <route id="495" edges="8857459#0"/>
    <route id="496" edges="8857459#1"/>
    <route id="497" edges="8857459#2"/>
    <route id="498" edges="8857459#3"/>
    <route id="499" edges="8857459#4"/>
    <route id="500" edges="8857459#5"/>
    <route id="501" edges="8857519#0"/>
    <route id="502" edges="8857519#1"/>
    <route id="503" edges="8857580"/>
    <route id="504" edges="8857582#0"/>
    <route id="505" edges="8857582#1"/>
    <route id="506" edges="8857591"/>
    <route id="507" edges="8857638#0"/>
    <route id="508" edges="8857689"/>
    <route id="509" edges="8857691#0"/>
    <route id="510" edges="8857691#1"/>
    <route id="511" edges="8857765"/>
    <route id="512" edges="8857807#0"/>
    <route id="513" edges="8857807#1"/>
    <route id="514" edges="8857807#2"/>
    <route id="515" edges="8857889"/>
    <route id="516" edges="8858130"/>
    <route id="517" edges="8858886#0"/>
    <route id="518" edges="8858886#1"/>
    <route id="519" edges="8858886#2"/>
    <route id="520" edges="8858886#3"/>
    <route id="521" edges="8859125#0"/>
    <route id="522" edges="8859125#1"/>
    <route id="523" edges="8859125#2"/>
    <route id="524" edges="8859368#0"/>
    <route id="525" edges="8859368#1"/>
    <route id="526" edges="8859368#2"/>
    <route id="527" edges="8859368#3"/>
    <route id="528" edges="8859410#0"/>
    <route id="529" edges="8859410#1"/>
    <route id="530" edges="8859410#10"/>
    <route id="531" edges="8859410#12"/>
    <route id="532" edges="8859410#2"/>
    <route id="533" edges="8859410#3"/>
    <route id="534" edges="8859410#6"/>
    <route id="535" edges="8859410#7"/>
    <route id="536" edges="8859410#8"/>
    <route id="537" edges="8859410#9"/>
    <route id="538" edges="8859643#0"/>
    <route id="539" edges="8859643#1"/>
    <route id="540" edges="8859647#0"/>
    <route id="541" edges="8859647#1"/>
    <route id="542" edges="8860178"/>
    <route id="543" edges="8860281#0"/>
    <route id="544" edges="8860281#1"/>
    <route id="545" edges="8860443#0"/>
    <route id="546" edges="8860443#1"/>
    <route id="547" edges="8860445#0"/>
    <route id="548" edges="8860445#1"/>
    <route id="549" edges="8860445#10"/>
    <route id="550" edges="8860445#2"/>
    <route id="551" edges="8860445#3"/>
    <route id="552" edges="8860445#4"/>
    <route id="553" edges="8860445#5"/>
    <route id="554" edges="8860445#6"/>
    <route id="555" edges="8860445#7"/>
    <route id="556" edges="8860445#8"/>
    <route id="557" edges="8860445#9"/>
    <route id="558" edges="8860464#0"/>
    <route id="559" edges="8860464#1"/>
    <route id="560" edges="8860464#2"/>
    <route id="561" edges="8860464#3"/>
    <route id="562" edges="8860486#0"/>
    <route id="563" edges="8860538#0"/>
    <route id="564" edges="8860538#2"/>
    <route id="565" edges="8860543"/>
    <route id="566" edges="8860836"/>
    <route id="567" edges="8860849#0"/>
    <route id="568" edges="8860849#1"/>
    <route id="569" edges="8860849#2"/>
    <route id="570" edges="8860849#4"/>
    <route id="571" edges="8860849#6"/>
    <route id="572" edges="8860849#7"/>
    <route id="573" edges="8860849#8"/>
    <route id="574" edges="8860938"/>
    <route id="575" edges="8861159#0"/>
    <route id="576" edges="8861159#1"/>
    <route id="577" edges="8861161"/>
    <route id="578" edges="8861255#0"/>
    <route id="579" edges="8861255#1"/>
    <route id="580" edges="8861283"/>
</routes>
