<?xml version="1.0" encoding="UTF-8"?>

<!-- generated on 2025-04-23 22:19:41.121590 by randomTrips.py v1_22_0+0002-63e50f52594
<configuration>
    <net-file value="osm.net.xml.gz"/>
    <output-trip-file value="osm.passenger.trips.xml"/>
    <route-file value="osm.passenger.rou.xml"/>
    <prefix value="veh"/>
    <trip-attributes value="departLane=&quot;best&quot;"/>
    <fringe-start-attributes value="departSpeed=&quot;max&quot;"/>
    <vehicle-class value="passenger"/>
    <lanes value="True"/>
    <fringe-factor value="5"/>
    <allow-fringe.min-length value="1000.0"/>
    <via-edge-types value="highway.motorway,highway.motorway_link,highway.trunk_link,highway.primary_link,highway.secondary_link,highway.tertiary_link"/>
    <min-distance value="300.0"/>
    <min-distance.fringe value="10.0"/>
    <remove-loops value="True"/>
    <validate value="True"/>
    <insertion-density value="12.0"/>
</configuration>
-->

<!-- generated on 2025-04-23 22:19:40 by Eclipse SUMO duarouter Version 1.22.0
<duarouterConfiguration xmlns:xsi="http://www.w3.org/2001/XMLSchema-instance" xsi:noNamespaceSchemaLocation="http://sumo.dlr.de/xsd/duarouterConfiguration.xsd">

    <input>
        <net-file value="osm.net.xml.gz"/>
        <route-files value="osm.passenger.trips.xml"/>
    </input>

    <output>
        <output-file value="osm.passenger.rou.xml"/>
        <alternatives-output value="NUL"/>
    </output>

    <processing>
        <remove-loops value="true"/>
    </processing>

    <time>
        <begin value="0.0"/>
        <end value="3600.0"/>
    </time>

    <report>
        <no-warnings value="true"/>
        <ignore-errors value="true"/>
        <no-step-log value="true"/>
    </report>

</duarouterConfiguration>
-->

<routes xmlns:xsi="http://www.w3.org/2001/XMLSchema-instance" xsi:noNamespaceSchemaLocation="http://sumo.dlr.de/xsd/routes_file.xsd">
    <vType id="veh_passenger" vClass="passenger"/>
    <vehicle id="veh0" type="veh_passenger" depart="0.00" departLane="best">
        <route edges="8848994#0 -8849038 8854504#2 -8860445#1 -8860445#0 202957325#0 202957325#1 202957325#2 1213167247 8853068#0 8853068#1 8853068#2 8853068#3 -107771269#4 -107771269#2 -107771269#1 -107771269#0"/>
    </vehicle>
    <vehicle id="veh1" type="veh_passenger" depart="3.67" departLane="best">
        <route edges="8852308#2 8852308#3 -107771235#9 -107771235#7 -107771235#6 -8860849#0 -8855717#4 -8855717#3 -8855717#2 -8855717#1 -8855717#0 -8853068#1 -8853068#0 1213167245 1213167246 -8853515#2 -8853515#1 -8853515#0 -202957359#5 -8849614 -107771217#1 -107771217#0 -8851370#6 -8851370#5 -8851370#4 -8851370#3 -8851370#2"/>
    </vehicle>
    <vehicle id="veh2" type="veh_passenger" depart="7.34" departLane="best">
        <route edges="-8858886#3 -8858886#2 -8858886#1 -8858886#0 -107771235#1 -107771269#4 -107771269#2 -8846178"/>
    </vehicle>
    <vehicle id="veh3" type="veh_passenger" depart="11.01" departLane="best" departSpeed="max">
        <route edges="-8857889 8855496#0 8860486#0 8857161#1 8856879 -8860445#6 -8860445#5 -8860445#4 -8860445#3 -8860445#2 -8860445#1 -8860445#0 202957325#0 202957325#1 202957325#2 1213167247 8853068#0 8853068#1 8853068#2 8853068#3 -107771269#4 -107771269#2 -107771269#1 -107771269#0"/>
    </vehicle>
    <vehicle id="veh4" type="veh_passenger" depart="14.68" departLane="best">
        <route edges="-8852100#1 8849849#1 8849849#4 8849849#5 8849849#6 8855717#2 8855717#3 8855717#4 8860849#0 107771235#6 107771235#7 107771235#9 107771235#10 178945497 197464470#0"/>
    </vehicle>
    <vehicle id="veh5" type="veh_passenger" depart="18.35" departLane="best">
        <route edges="107771269#2 107771269#3 107771235#0 107771235#2 107771235#3 107771235#4 107771235#6 107771235#7 107771235#9 -8852308#3 -8852308#2 -8852308#1"/>
    </vehicle>
    <vehicle id="veh6" type="veh_passenger" depart="22.02" departLane="best">
        <route edges="8849652#2 8849652#3 8849652#4 8849652#5 8849652#6 8849652#7 8849652#8 8849652#9 -8860849#5 -8860849#3 -8860849#1 -8860849#0 -8855717#4 -8855717#3 -8855717#2 -8855717#1 -8855717#0 -8853068#1 -8853068#0 1213167245 1213167246 202957372 202957371"/>
    </vehicle>
    <vehicle id="veh7" type="veh_passenger" depart="25.69" departLane="best">
        <route edges="-8852100#2 -202957325#0 -107771217#1 8854504#0 8854504#1 8849038"/>
    </vehicle>
    <vehicle id="veh8" type="veh_passenger" depart="29.36" departLane="best">
        <route edges="8855420 8853068#1 8855717#0 8855717#1 8855717#2 8855717#3 8855717#4 8860849#0 107771235#6 107771235#7 107771235#9 107771235#10"/>
    </vehicle>
    <vehicle id="veh9" type="veh_passenger" depart="33.03" departLane="best" departSpeed="max">
        <route edges="8855220#0 -8861255#1 -8861255#0 -107771235#10 -107771235#9 -107771235#7 -107771235#6 -8860849#0 -8855717#4 -8855717#3 -8859368#1 -8859368#0 -8857691#1 8852100#0"/>
    </vehicle>
    <vehicle id="veh10" type="veh_passenger" depart="36.70" departLane="best">
        <route edges="-8855717#0 -8853068#1 -8853068#0 1213167245 1213167246 -8853515#2 -8853515#1 -8853515#0 -202957359#5 -8849614 8860445#0 8860445#1 8860445#2 8860445#3 8860445#4 8860445#5 8860445#6 8860445#7 8860445#8 8860445#9 8860445#10 -8850627#2"/>
    </vehicle>
    <vehicle id="veh11" type="veh_passenger" depart="40.37" departLane="best">
        <route edges="8860464#2 -8851470#1 -8853515#1 -8853515#0 -202957359#5 -8849614 8860445#0 8860445#1 8860445#2 8860445#3 -1103221333#6 -1103221333#5 -1103221333#3 -1103221333#2 -8856609#2 -8857765"/>
    </vehicle>
    <vehicle id="veh12" type="veh_passenger" depart="44.04" departLane="best" departSpeed="max">
        <route edges="-8846222#5 -8849933#0 -8853068#2 -8853068#1 -8853068#0 1213167245 1213167246 -8853515#2 -8853515#1 -8853515#0 -202957359#5 -8849614 8860445#0 8860445#1 8860445#2 8860445#3 8860445#4 8860445#5 8860445#6 -8856879 -8857161#1 -8860486#1 -8855496#0 -8846831"/>
    </vehicle>
    <vehicle id="veh13" type="veh_passenger" depart="47.71" departLane="best">
        <route edges="8857161#1 8856879 -8860445#6 -8860445#5 -8860445#4 -8860445#3 -8860445#2 -8854504#2 -8853481#0 -8857807#2 8849643"/>
    </vehicle>
    <vehicle id="veh14" type="veh_passenger" depart="51.38" departLane="best" departSpeed="max">
        <route edges="8855220#0 -8861255#1 -8861255#0 -107771235#10 -107771235#9 -107771235#7 -107771235#6 -8860849#0 -8855717#4 -8855717#3 -8855717#2 -8855717#1 -8855717#0 -8853068#1 -8853068#0 1213167245 1213167246 -8853515#2 -8853515#1 -8853515#0 -202957359#5 -202957359#4 -202957359#3 -202957359#2 -202957359#1 8852605"/>
    </vehicle>
    <vehicle id="veh15" type="veh_passenger" depart="55.05" departLane="best">
        <route edges="-8857161#0 8855496#4 -8860445#8 -8860445#7 -8860445#6 -8860445#5 -8860445#4 -8860445#3 -8860445#2 -8860445#1 -8860445#0 202957325#0 202957325#1 202957325#2 1213167247 8853068#0 8853068#1 8854261 202957373#0 202957373#1 202957373#2"/>
    </vehicle>
    <vehicle id="veh16" type="veh_passenger" depart="58.72" departLane="best" departSpeed="max">
        <route edges="8856577#0 107771269#1 107771269#2 107771269#3 -8853068#6 -8853068#2 -8853068#1 -8853068#0 1213167245 1213167246 -8853515#2 -8853515#1 -8852100#2 -8852100#1 8849849#1"/>
    </vehicle>
    <vehicle id="veh17" type="veh_passenger" depart="62.39" departLane="best">
        <route edges="-8857459#5 -8850885 -8861159#0 8849652#7 8849652#8 8849652#9 -8860849#5 -8860849#3 -8860849#1 -8860849#0 -8855717#4 -8855717#3 -8859368#1 -8859368#0 -8857691#1 -8857691#0 -8860445#2 -8854504#2 -8853481#0 -8853482#1 8849028"/>
    </vehicle>
    <vehicle id="veh18" type="veh_passenger" depart="66.06" departLane="best">
        <route edges="8851326#1 -8852308#1 -8852308#0 -8860445#7 -8860445#6 -8860445#5 -8860445#4 -1103221333#6 -1103221333#5 -1103221333#3 -1103221333#2 -1103221333#1 -1103221333#0"/>
    </vehicle>
    <vehicle id="veh19" type="veh_passenger" depart="69.73" departLane="best">
        <route edges="-8852308#4 -107771235#9 -107771235#7 -107771235#6 -107771235#5 -107771235#3 -107771235#2 -107771235#1 -107771269#4 -107771269#2 -107771269#1 -8856577#0"/>
    </vehicle>
    <vehicle id="veh20" type="veh_passenger" depart="73.40" departLane="best" departSpeed="max">
        <route edges="-202957373#3 -202957373#2 -202957373#1 -202957373#0 -8854261 8855717#0 8855717#1 8855717#2 8855717#3 8855717#4 8860849#0 8860849#1 8860849#2 8860849#4 8860849#6 8860849#7 8860849#8 -8853936"/>
    </vehicle>
    <vehicle id="veh21" type="veh_passenger" depart="77.07" departLane="best" departSpeed="max">
        <route edges="-8849028 8853482#1 8853481#0 8854504#2 8860445#2 8860445#3 8860445#4 8860445#5 8860445#6 8860445#7 8860445#8 -8855496#4"/>
    </vehicle>
    <vehicle id="veh22" type="veh_passenger" depart="80.74" departLane="best">
        <route edges="-8857459#2 -8857459#1 -8857459#0 8849652#6 8849652#7 -8852308#6 -8852308#4 -8852308#3 -8852308#2 -8852308#1 -8859410#2 -8859410#1 -8859410#0"/>
    </vehicle>
    <vehicle id="veh23" type="veh_passenger" depart="84.41" departLane="best">
        <route edges="-8856977#0 -202957380 -202957372 8850146 -202957325#2 -202957325#1 -202957325#0 -107771217#1 -107771217#0 -8851370#6 -8851370#5 -8851370#4 -8851370#3 -8851370#2 -8851370#1 -8852917#1 -8852917#0"/>
    </vehicle>
    <vehicle id="veh24" type="veh_passenger" depart="88.08" departLane="best">
        <route edges="-8853068#2 8855717#0 8855717#1 8855717#2 8855717#3 8851298#0 -8857519#1 -8857519#0 8859410#8"/>
    </vehicle>
    <vehicle id="veh25" type="veh_passenger" depart="91.75" departLane="best" departSpeed="max">
        <route edges="8849652#0 8849652#2 8849652#3 8849652#4"/>
    </vehicle>
    <vehicle id="veh26" type="veh_passenger" depart="95.42" departLane="best">
        <route edges="-8850947 -107771235#10 -107771235#9 -107771235#7 -107771235#6 -8860849#0 -8855717#4 -8855717#3 -8855717#2 -8855717#1 -8855717#0 -8853068#1 -8853068#0 1213167245 1213167246 -8853515#2 -8853515#1 -8853515#0 -202957359#5 -202957359#4 -202957359#3 -202957359#2 -202957359#1 8852605"/>
    </vehicle>
    <vehicle id="veh27" type="veh_passenger" depart="99.09" departLane="best" departSpeed="max">
        <route edges="8861161 8859643#1 -8857459#5 -8850885 -8861159#0 8849652#7 8849652#8 8849652#9 -8860849#5 -8860849#3 -8860849#1 -107771235#5 -107771235#3 -107771235#2 8858886#0 8858886#1 8850360"/>
    </vehicle>
    <vehicle id="veh28" type="veh_passenger" depart="102.76" departLane="best">
        <route edges="107771269#2 107771269#3 -8853068#6 -8853068#2 -8853068#1 -8853068#0 1213167245 1213167246 -8853515#2 8851470#1"/>
    </vehicle>
    <vehicle id="veh29" type="veh_passenger" depart="106.43" departLane="best" departSpeed="max">
        <route edges="8857005 1103221333#1 1103221333#2 1103221333#3 1103221333#5 1103221333#6 -8860445#3 8857691#0 8857691#1 8859368#0 8859368#1 8859368#2 8859368#3 8857689 -107771235#3 -107771235#2 8858886#0 8858886#1 8858886#2 8858886#3 8854466#1 8854466#3"/>
    </vehicle>
    <vehicle id="veh30" type="veh_passenger" depart="110.10" departLane="best">
        <route edges="-8852308#6 -8852308#4 -107771235#9 -107771235#7 -107771235#6 -107771235#5 -107771235#3 -107771235#2 -107771235#1 -107771269#4 -107771269#2 -107771269#1 -107771269#0"/>
    </vehicle>
    <vehicle id="veh31" type="veh_passenger" depart="113.77" departLane="best" departSpeed="max">
        <route edges="-8855069 -8850947 8861255#0 8861255#1 -8855220#1"/>
    </vehicle>
    <vehicle id="veh32" type="veh_passenger" depart="117.44" departLane="best" departSpeed="max">
        <route edges="-8852013 -8856577#1 107771269#1 107771269#2 107771269#3 107771235#0 107771235#2 107771235#3 107771235#4 8860849#1 8860849#2 8860849#4 -8849652#9 -8849652#8 -8849652#7 8861159#0 8850885 8857459#5 -8859643#1 -8859643#0 8859647#1"/>
    </vehicle>
    <vehicle id="veh33" type="veh_passenger" depart="121.11" departLane="best">
        <route edges="8857691#0 8857691#1 8859368#0 8859368#1 8855717#3 8855717#4 8860849#0 8860849#1 8860849#2 8860849#4 -8849652#9 -8849652#8 -8849652#7 -8849652#6 8857459#0 8857459#1 8847900"/>
    </vehicle>
    <vehicle id="veh34" type="veh_passenger" depart="124.78" departLane="best">
        <route edges="8849652#6 8849652#7 -8852308#6 -8852308#4 -8852308#3 -8852308#2 -8852308#1 -8859410#2 -8854843 8860445#10 -8860443#0"/>
    </vehicle>
    <vehicle id="veh35" type="veh_passenger" depart="128.45" departLane="best">
        <route edges="8859410#3 8859410#6 8854845 -8851298#1 -8851298#0 8855717#4 8860849#0 -107771235#5 -107771235#3 -107771235#2 -107771235#1"/>
    </vehicle>
    <vehicle id="veh36" type="veh_passenger" depart="132.12" departLane="best">
        <route edges="8853068#0 8853068#1 8853068#2 8853068#3 107771235#0 8858886#0 8858886#1 8858886#2 8858886#3 8854466#1"/>
    </vehicle>
    <vehicle id="veh37" type="veh_passenger" depart="135.79" departLane="best">
        <route edges="1103221333#1 -8856609#2 -8856609#0 8855496#1 -8860281#1 -8855071"/>
    </vehicle>
    <vehicle id="veh38" type="veh_passenger" depart="139.46" departLane="best" departSpeed="max">
        <route edges="178945504 197464478 -107771235#10 -107771235#9 -107771235#7 -107771235#6 -8860849#0 -8855717#4 -8855717#3 -8855717#2 -8855717#1 -8855717#0 -8853068#1 -8853068#0 1213167245 1213167246 -8853515#2 -8853515#1 -8853515#0 -202957359#5 -8849614 -107771217#1 -107771217#0 -8851370#6 8857807#0"/>
    </vehicle>
    <vehicle id="veh39" type="veh_passenger" depart="143.13" departLane="best">
        <route edges="-8857459#4 -8857459#3 -8857459#2 -8857459#1 -8857459#0 8849652#6 8849652#7 8849652#8 8849652#9 -8860849#5 -8860849#3 -8860849#1 -8860849#0 -8855717#4 -8855717#3 -8859368#1 -8859368#0 -8857691#1 -8857691#0 -8860445#2 -8854504#2 -8853481#0"/>
    </vehicle>
    <vehicle id="veh40" type="veh_passenger" depart="146.80" departLane="best" departSpeed="max">
        <route edges="8861283 8855621#0 8855621#1 8859410#1 8855658 -8851326#0 -8850947 178945497 197464470#0"/>
    </vehicle>
    <vehicle id="veh41" type="veh_passenger" depart="150.47" departLane="best" departSpeed="max">
        <route edges="-8846222#5 -8849933#0 -8853068#2 -8853068#1 -8853068#0 1213167245 1213167246 -8853515#2 -8853515#1 -8853515#0 -202957359#5 -8849614 8860445#0 8860445#1 8860445#2 8860445#3 -1103221333#6 -1103221333#5 -1103221333#3 -1103221333#2 -1103221333#1 -1103221333#0"/>
    </vehicle>
    <vehicle id="veh42" type="veh_passenger" depart="154.14" departLane="best" departSpeed="max">
        <route edges="-8849034 8849774 202957359#4 202957359#5 8853515#0 8853515#1 8853515#2 8850146 1213167247 8853068#0 8853068#1 8853068#2 8849933#0 8849933#1"/>
    </vehicle>
    <vehicle id="veh43" type="veh_passenger" depart="157.81" departLane="best">
        <route edges="8854714#2 8849852 -107771235#1 -8853068#6 -8853068#2 -8853068#1 -8853068#0 1213167245 1213167246 -8853515#2 -8853515#1 -8853515#0 -202957359#5 -8849614 -107771217#1 -107771217#0 -8851370#6 -8851370#5 -8851370#4 -8849958#1 -8860543"/>
    </vehicle>
    <vehicle id="veh44" type="veh_passenger" depart="161.48" departLane="best" departSpeed="max">
        <route edges="-202957371 -202957372 8850146 1213167247 8853068#0 8853068#1 8855717#0 8855717#1 8855717#2 8855717#3 8855717#4 8860849#0 8860849#1 8860849#2 8860849#4 -8849652#9 -8849652#8 -8849652#7 8861159#0 8850885 8857459#5 -8859643#1 -8859643#0 -8859647#0"/>
    </vehicle>
    <vehicle id="veh45" type="veh_passenger" depart="165.15" departLane="best" departSpeed="max">
        <route edges="8861283 8855621#0 8855621#1 8859410#1 -8854843 -8860445#9 -8860445#8 -8860445#7 -8860445#6 -8860445#5 -8860445#4 -8860445#3 -8860445#2 -8860445#1 -8860445#0 8849614 202957350#0 202957350#1"/>
    </vehicle>
    <vehicle id="veh46" type="veh_passenger" depart="168.82" departLane="best" departSpeed="max">
        <route edges="8860836 -8860849#6 -8860849#5 -8860849#3 -8860849#1 -8860849#0 -8855717#4 -8855717#3 -8859368#1 -8859368#0 -8857691#1 -8857691#0 8860445#3 8860445#4 8860445#5 8860445#6 -8856879 8857161#2"/>
    </vehicle>
    <vehicle id="veh47" type="veh_passenger" depart="172.49" departLane="best">
        <route edges="107771235#3 -8857689 -8859368#3 -8859368#2 -8859368#1 -8859368#0 -8857691#1 -8857691#0 8860445#3 -1103221333#6 -1103221333#5 8852597"/>
    </vehicle>
    <vehicle id="veh48" type="veh_passenger" depart="176.16" departLane="best" departSpeed="max">
        <route edges="8850614 -8857459#0 8849652#6 8849652#7 8849652#8 8849652#9 -8860849#5 -8860849#3 -8860849#1 -8860849#0 -8855717#4 -8855717#3 -8855717#2 -8855717#1 -8855717#0 -8853068#1 -8853068#0 1213167245 1213167246 -8853515#2 -8853515#1 -8853515#0 -202957359#5 -202957359#4 -202957359#3 -202957359#2"/>
    </vehicle>
    <vehicle id="veh49" type="veh_passenger" depart="179.83" departLane="best">
        <route edges="-8853068#2 8855717#0 8855717#1 8855717#2 8855717#3 8855717#4 8860849#0 8860849#1 8860849#2 8860538#0 8860538#2 8850547#0"/>
    </vehicle>
    <vehicle id="veh50" type="veh_passenger" depart="183.50" departLane="best">
        <route edges="-8849038 8854504#2 8860445#2 8857691#0 8857691#1 8859368#0 8859368#1 8855717#3 8855717#4 8860849#0 8860849#1 8860849#2 8860849#4 8860849#6"/>
    </vehicle>
    <vehicle id="veh51" type="veh_passenger" depart="187.17" departLane="best">
        <route edges="-8859410#6 -8857453 -8850107 -8860445#4 -8860445#3 -8860445#2 -8860445#1"/>
    </vehicle>
    <vehicle id="veh52" type="veh_passenger" depart="190.84" departLane="best">
        <route edges="-8857691#0 8860445#3 8860445#4 8860445#5 8860445#6 8860445#7 8860445#8 -8855496#4 -8855496#3 -8860281#1 -8855071"/>
    </vehicle>
    <vehicle id="veh53" type="veh_passenger" depart="194.51" departLane="best">
        <route edges="-8860849#9 -8860849#7 -8860849#6 -8860849#5 -8860849#3 -8860849#1 -8860849#0 -8855717#4 -8855717#3 -8855717#2 -8855717#1 -8855717#0 -8853068#1 -8853068#0 1213167245 1213167246 -8853515#2 -8853515#1 -8853515#0 -202957359#5 -8849614 -107771217#1 -107771217#0 -8851370#6 -8851370#5 -8851370#4 -8851370#3"/>
    </vehicle>
    <vehicle id="veh54" type="veh_passenger" depart="198.18" departLane="best">
        <route edges="8859410#2 -8852308#0 -8860445#7 -8860445#6 -8860445#5 -8860445#4 -8860445#3 -8860445#2 -8854504#2 -8853481#0 -8857323"/>
    </vehicle>
    <vehicle id="veh55" type="veh_passenger" depart="201.85" departLane="best">
        <route edges="-8854504#0 107771217#1 8849614 202957359#5 8853515#0 8853515#1 8853515#2 8850146"/>
    </vehicle>
    <vehicle id="veh56" type="veh_passenger" depart="205.52" departLane="best">
        <route edges="202957359#4 -8849614 8860445#0 8860445#1 8860445#2 8860445#3 8860445#4 8860445#5 8860445#6 8860445#7 8860445#8 8860445#9 8860445#10 -8850627#2"/>
    </vehicle>
    <vehicle id="veh57" type="veh_passenger" depart="209.19" departLane="best" departSpeed="max">
        <route edges="8854466#0 -8858886#3 -8858886#2 -8858886#1 -8858886#0 -107771235#1 -8853068#6 -8853068#2 -8853068#1 -8853068#0 1213167245 1213167246 -8853515#2 -8853515#1 -8853515#0 -202957359#5 202957350#0 202957350#1"/>
    </vehicle>
    <vehicle id="veh58" type="veh_passenger" depart="212.86" departLane="best">
        <route edges="-107771217#0 8852932#0 8849774 202957359#4 202957359#5 8853515#0 8853515#1 8853515#2 8850146 1213167247 8853068#0 8853068#1 8853068#2 8853068#3 107771235#0 8858886#0 8858886#1 8850360 -8857582#0"/>
    </vehicle>
    <vehicle id="veh59" type="veh_passenger" depart="216.53" departLane="best">
        <route edges="-107771235#7 -107771235#6 -8860849#0 -8855717#4 -8855717#3 -8855717#2 -8849849#6 -8849849#5 -8849849#4 8859410#10"/>
    </vehicle>
    <vehicle id="veh60" type="veh_passenger" depart="220.20" departLane="best" departSpeed="max">
        <route edges="8857765 8856609#2 1103221333#2 1103221333#3 1103221333#5 1103221333#6 -8860445#3 -8860445#2 -8860445#1 -8860445#0 202957325#0 202957325#1 202957325#2 1213167247 8853068#0 8853068#1 8853068#2 8853068#3 -107771269#4 -107771269#2 -107771269#1 8856577#1"/>
    </vehicle>
    <vehicle id="veh61" type="veh_passenger" depart="223.87" departLane="best">
        <route edges="-8854843 -8860445#9 -8860445#8 -8860445#7 -8860445#6 -8860445#5 -8860445#4 -8860445#3 -8860445#2 -8860445#1 -8860445#0 202957325#0"/>
    </vehicle>
    <vehicle id="veh62" type="veh_passenger" depart="227.54" departLane="best">
        <route edges="-8857691#1 -8857691#0 -8860445#2 -8854504#2 -8853481#0 -8857323 8860178"/>
    </vehicle>
    <vehicle id="veh63" type="veh_passenger" depart="231.21" departLane="best">
        <route edges="-8846222#3 8855717#1 8855717#2 -8859368#1 -8859368#0 -8857691#1 -8857691#0 8860445#3 -1103221333#6 -1103221333#5 -1103221333#3 -1103221333#2 -1103221333#1"/>
    </vehicle>
    <vehicle id="veh64" type="veh_passenger" depart="234.88" departLane="best">
        <route edges="-202957372 8850146 -202957325#2 -202957325#1 -202957325#0 -107771217#1 -107771217#0 -8851370#6 8857807#0 8853519#1"/>
    </vehicle>
    <vehicle id="veh65" type="veh_passenger" depart="238.55" departLane="best">
        <route edges="8853519#0 8853519#1 -8854504#0 107771217#1 202957325#0 202957325#1 202957325#2 1213167247 8859125#0 8859125#1 -8849849#4"/>
    </vehicle>
    <vehicle id="veh66" type="veh_passenger" depart="242.22" departLane="best">
        <route edges="-8860445#3 -8860445#2 -8860445#1 -8860445#0 202957325#0 202957325#1 202957325#2 1213167247 8853068#0 8853068#1 8854261 202957373#0"/>
    </vehicle>
    <vehicle id="veh67" type="veh_passenger" depart="245.89" departLane="best">
        <route edges="-8853068#0 1213167245 1213167246 -8853515#2 -8853515#1 -8853515#0 -202957359#5 -8849614 8860445#0 8860445#1 8860445#2 8860445#3 8860445#4 8850107 8857452"/>
    </vehicle>
    <vehicle id="veh68" type="veh_passenger" depart="249.56" departLane="best" departSpeed="max">
        <route edges="-8857889 8855496#0 8860486#0 8857161#1 8856879 -8860445#6 -8860445#5 -8860445#4 -8860445#3 -8860445#2 -8860445#1 -8860445#0 8849614 -202957359#4 -8849774 -8852932#0"/>
    </vehicle>
    <vehicle id="veh69" type="veh_passenger" depart="253.23" departLane="best">
        <route edges="107771235#9 -8852308#3 -8851298#3 -8851298#2 -8851298#1 -8851298#0 -8855717#3 -8855717#2 -8855717#1 -8855717#0 -8853068#1 -8853068#0 1213167245 1213167246 -8853515#2 -8853515#1 -8853515#0 -202957359#5 -202957359#4 -202957359#3 -202957359#2 -202957359#1 8852605"/>
    </vehicle>
    <vehicle id="veh70" type="veh_passenger" depart="256.90" departLane="best">
        <route edges="8851370#6 107771217#0 107771217#1 202957325#0 202957325#1 202957325#2 1213167247 8853068#0 8853068#1 8855717#0 8855717#1 8855717#2 8855717#3 8855717#4 8860849#0 8860849#1 8860849#2 8860849#4 -8849652#9 -8849652#8 -8849652#7 -8849652#6 8857459#0"/>
    </vehicle>
    <vehicle id="veh71" type="veh_passenger" depart="260.57" departLane="best" departSpeed="max">
        <route edges="8861283 8855621#0 8855621#1 8859410#1 8859410#2 8852308#1 8852308#2 8852308#3 8852308#4 8852308#5 -8849652#7 8861159#0 8850885"/>
    </vehicle>
    <vehicle id="veh72" type="veh_passenger" depart="264.24" departLane="best">
        <route edges="-8858886#3 -8858886#2 -8858886#1 -8858886#0 -107771235#1 -107771269#4 -8847360 -202957305#1"/>
    </vehicle>
    <vehicle id="veh73" type="veh_passenger" depart="267.91" departLane="best">
        <route edges="-8855658 -8854843 -8860445#9 -8860445#8 -8860445#7 -8860445#6 -8860445#5 -8860445#4 -8860445#3 -8860445#2 -8860445#1 -8860445#0 8849614 -202957359#4 -8849774 8849034"/>
    </vehicle>
    <vehicle id="veh74" type="veh_passenger" depart="271.58" departLane="best">
        <route edges="-8852460#0 1213167246 -8853515#2 -8853515#1 -8853515#0 -202957359#5 -8849614 8860445#0 8860445#1 -8854504#2 -8853481#0 -8853482#1 -8853482#0"/>
    </vehicle>
    <vehicle id="veh75" type="veh_passenger" depart="275.25" departLane="best">
        <route edges="-202957373#0 -8852460#2 -8852460#0 1213167246 -8853515#2 -8853515#1 -8853515#0 -202957359#5 -8849614 -107771217#1 -107771217#0 -8851370#6 -8851370#5 8849960"/>
    </vehicle>
    <vehicle id="veh76" type="veh_passenger" depart="278.92" departLane="best">
        <route edges="-8852308#6 -8852308#4 -8852308#3 -8852308#2 -8852308#1 -8852308#0 8860445#8 -8855496#4 -8855496#3 -8855496#2 -8855496#0 8857889"/>
    </vehicle>
    <vehicle id="veh77" type="veh_passenger" depart="282.59" departLane="best">
        <route edges="8857459#4 -8850885 -8861159#0 8849652#7 8849652#8 8849652#9 -8860849#5 -8860849#3 -8860849#1 -8860849#0 -8855717#4 -8855717#3 -8855717#2 -8855717#1 -8855717#0 -8853068#1 -8853068#0 1213167245 1213167246 -8853515#2 -8853515#1 -8853515#0 -202957359#5 -202957359#4 -202957359#3 -202957359#2"/>
    </vehicle>
    <vehicle id="veh78" type="veh_passenger" depart="286.26" departLane="best" departSpeed="max">
        <route edges="-8852465 1103221333#6 8860445#4 8850107 8857452 8859410#6 8854845 8851298#2 8851293 8851300"/>
    </vehicle>
    <vehicle id="veh79" type="veh_passenger" depart="289.93" departLane="best" departSpeed="max">
        <route edges="-8852021 -8860445#5 -8860445#4 -8860445#3 -8860445#2 -8860445#1 -8860445#0 202957325#0 202957325#1 202957325#2 1213167247 8853068#0 8853068#1 8853068#2 8849933#0 8849933#1 -8849849#7"/>
    </vehicle>
    <vehicle id="veh80" type="veh_passenger" depart="293.60" departLane="best" departSpeed="max">
        <route edges="8860443#0 8860443#1 -8860445#9 -8860445#8 -8860445#7 -8860445#6 -8860445#5 -8860445#4 -8860445#3 -8860445#2 -8860445#1 -8860445#0 202957325#0 202957325#1 202957325#2 1213167247 8853068#0 8853068#1 8853068#2 8849933#0 8846222#4"/>
    </vehicle>
    <vehicle id="veh81" type="veh_passenger" depart="297.27" departLane="best">
        <route edges="-8860445#1 8849849#0 8849849#1 8849849#4 8849849#5 8849849#6 8849849#7 8854714#0"/>
    </vehicle>
    <vehicle id="veh82" type="veh_passenger" depart="300.94" departLane="best" departSpeed="max">
        <route edges="8855220#0 -8861255#1 -8861255#0 -107771235#10 -107771235#9 -107771235#7 -107771235#6 -8860849#0 -8855717#4 -8855717#3 -8855717#2 -8855717#1 -8855717#0 -8853068#1 -8853068#0 1213167245 1213167246 -8853515#2 -8853515#1 8852100#3"/>
    </vehicle>
    <vehicle id="veh83" type="veh_passenger" depart="304.61" departLane="best">
        <route edges="-8848994#1 -8849038 8854504#2 8860445#2 8857691#0 8857691#1 8859368#0 8859368#1 8855717#3 8855717#4 8860849#0 107771235#6"/>
    </vehicle>
    <vehicle id="veh84" type="veh_passenger" depart="308.28" departLane="best" departSpeed="max">
        <route edges="-8857889 8855496#0 8860486#0 8857161#1 8856879 -8860445#6 -8860445#5 -8860445#4 -8860445#3 -8860445#2 -8860445#1 -8860445#0 202957325#0 202957325#1 202957325#2 1213167247 8853068#0 8853068#1 8853068#2 8853068#3 107771235#0 107771235#2 107771235#3"/>
    </vehicle>
    <vehicle id="veh85" type="veh_passenger" depart="311.94" departLane="best" departSpeed="max">
        <route edges="8852297#0 -8861255#0 8850947 8851326#0 8851326#1"/>
    </vehicle>
    <vehicle id="veh86" type="veh_passenger" depart="315.61" departLane="best">
        <route edges="-8861159#0 8849652#7 -8852308#6 -8852308#4 -8852308#3 -8852308#2 -8852308#1 -8852308#0 8860445#8 -8855496#4 -8855496#3 -8855496#2 -8855496#0 -8846831"/>
    </vehicle>
    <vehicle id="veh87" type="veh_passenger" depart="319.28" departLane="best">
        <route edges="-8857519#1 -8857519#0 8859410#8 -8857691#1 -8857691#0 8860445#3 -1103221333#6 -1103221333#5 -1103221333#3 -1103221333#2 -8856609#2 -8857765"/>
    </vehicle>
    <vehicle id="veh88" type="veh_passenger" depart="322.95" departLane="best">
        <route edges="-8857459#5 -8850885 -8861159#0 8849652#7 8849652#8 8849652#9 -8860849#5 -8860849#3 -8860849#1 -8860849#0 -8855717#4 -8855717#3 -8859368#1 -8859368#0 -8857691#1 -8857691#0 -8860445#2 -8854504#2 -8854504#1 -8854504#0"/>
    </vehicle>
    <vehicle id="veh89" type="veh_passenger" depart="326.62" departLane="best" departSpeed="max">
        <route edges="-8851300 107771235#9 -8852308#3 -8852308#2 -8852308#1 -8859410#2 -8859410#1 -8855621#1 -8855621#0 -8861283"/>
    </vehicle>
    <vehicle id="veh90" type="veh_passenger" depart="330.29" departLane="best" departSpeed="max">
        <route edges="-8857889 8855496#0 8855496#1 8855496#3 8855496#4"/>
    </vehicle>
    <vehicle id="veh91" type="veh_passenger" depart="333.96" departLane="best" departSpeed="max">
        <route edges="-8852605 202957359#1 202957359#2 202957359#3 202957359#4 202957359#5 8853515#0 8853515#1 8853515#2 8850146 -8859410#12 -8859410#11 -8859410#9 8859368#0"/>
    </vehicle>
    <vehicle id="veh92" type="veh_passenger" depart="337.63" departLane="best">
        <route edges="-8859368#0 -8857691#1 -8857691#0 8860445#3 8860445#4 8860445#5 8860445#6 -8856879 8857161#2"/>
    </vehicle>
    <vehicle id="veh93" type="veh_passenger" depart="341.30" departLane="best" departSpeed="max">
        <route edges="107771269#0 107771269#1 107771269#2 107771269#3 -8853068#6 -8853068#2 -8853068#1 -8853068#0 1213167245 1213167246 -8853515#2 -8853515#1 -8853515#0 -202957359#5 -8849614 8860445#0 8860445#1 8860445#2 8860445#3 -1103221333#6 -1103221333#5 -1103221333#3 -1103221333#2"/>
    </vehicle>
    <vehicle id="veh94" type="veh_passenger" depart="344.97" departLane="best" departSpeed="max">
        <route edges="8861283 8855621#0 8855621#1 8859410#1 8859410#2 8852308#1 8852308#2 8852308#3 -107771235#9 -107771235#7 -107771235#6 -107771235#5 -107771235#3 -107771235#2 -107771235#1 -107771269#4 -107771269#2 -107771269#1 8856577#1 8856577#2"/>
    </vehicle>
    <vehicle id="veh95" type="veh_passenger" depart="348.64" departLane="best" departSpeed="max">
        <route edges="8860836 -8860849#6 -8860849#5 -8860849#3 -8860849#1 -8860849#0 -8855717#4 -8855717#3 8859368#2 8859368#3"/>
    </vehicle>