<?xml version="1.0" encoding="UTF-8"?>

<!-- generated on 2025-04-23 22:19:41.375568 by randomTrips.py v1_22_0+0002-63e50f52594
<configuration>
    <net-file value="osm.net.xml.gz"/>
    <output-trip-file value="osm.passenger.trips.xml"/>
    <route-file value="osm.passenger.rou.xml"/>
    <prefix value="veh"/>
    <trip-attributes value="departLane=&quot;best&quot;"/>
    <fringe-start-attributes value="departSpeed=&quot;max&quot;"/>
    <vehicle-class value="passenger"/>
    <lanes value="True"/>
    <fringe-factor value="5"/>
    <allow-fringe.min-length value="1000.0"/>
    <via-edge-types value="highway.motorway,highway.motorway_link,highway.trunk_link,highway.primary_link,highway.secondary_link,highway.tertiary_link"/>
    <min-distance value="300.0"/>
    <min-distance.fringe value="10.0"/>
    <remove-loops value="True"/>
    <validate value="True"/>
    <insertion-density value="12.0"/>
</configuration>
-->

<!-- generated on 2025-04-23 22:19:41 by Eclipse SUMO duarouter Version 1.22.0
<duarouterConfiguration xmlns:xsi="http://www.w3.org/2001/XMLSchema-instance" xsi:noNamespaceSchemaLocation="http://sumo.dlr.de/xsd/duarouterConfiguration.xsd">

    <input>
        <net-file value="osm.net.xml.gz"/>
        <route-files value="osm.passenger.trips.xml"/>
    </input>

    <output>
        <output-file value="osm.passenger.trips.xml.tmp"/>
        <alternatives-output value="NUL"/>
        <write-trips value="true"/>
    </output>

    <processing>
        <remove-loops value="true"/>
    </processing>

    <time>
        <begin value="0.0"/>
        <end value="3600.0"/>
    </time>

    <report>
        <no-warnings value="true"/>
        <ignore-errors value="true"/>
        <no-step-log value="true"/>
    </report>

</duarouterConfiguration>
-->

<routes xmlns:xsi="http://www.w3.org/2001/XMLSchema-instance" xsi:noNamespaceSchemaLocation="http://sumo.dlr.de/xsd/routes_file.xsd">
    <vType id="veh_passenger" vClass="passenger" accel="1.7" decel="2.5" emergencyDecel="3.5" tau=".9" sigma="0.7" minGap="3.5" startupDelay="1.3" actionStepLength="1.5" carFollowModel="Krauss"/>
    <trip id="veh0" type="veh_passenger" depart="0.00" departLane="best" from="8848994#0" to="-107771269#0"/>
    <trip id="veh1" type="veh_passenger" depart="3.67" departLane="best" from="8852308#2" to="-8851370#2"/>
    <trip id="veh2" type="veh_passenger" depart="7.34" departLane="best" from="-8858886#3" to="-8846178"/>
    <trip id="veh3" type="veh_passenger" depart="11.01" departLane="best" departSpeed="max" from="-8857889" to="-107771269#0"/>
    <trip id="veh4" type="veh_passenger" depart="14.68" departLane="best" from="-8852100#1" to="197464470#0"/>
    <trip id="veh5" type="veh_passenger" depart="18.35" departLane="best" from="107771269#2" to="-8852308#1"/>
    <trip id="veh6" type="veh_passenger" depart="22.02" departLane="best" from="8849652#2" to="202957371"/>
    <trip id="veh7" type="veh_passenger" depart="25.69" departLane="best" from="-8852100#2" to="8849038"/>
    <trip id="veh8" type="veh_passenger" depart="29.36" departLane="best" from="8855420" to="107771235#10"/>
    <trip id="veh9" type="veh_passenger" depart="33.03" departLane="best" departSpeed="max" from="8855220#0" to="8852100#0"/>
    <trip id="veh10" type="veh_passenger" depart="36.70" departLane="best" from="-8855717#0" to="-8850627#2"/>
    <trip id="veh11" type="veh_passenger" depart="40.37" departLane="best" from="8860464#2" to="-8857765"/>
    <trip id="veh12" type="veh_passenger" depart="44.04" departLane="best" departSpeed="max" from="-8846222#5" to="-8846831"/>
    <trip id="veh13" type="veh_passenger" depart="47.71" departLane="best" from="8857161#1" to="8849643"/>
    <trip id="veh14" type="veh_passenger" depart="51.38" departLane="best" departSpeed="max" from="8855220#0" to="8852605"/>
    <trip id="veh15" type="veh_passenger" depart="55.05" departLane="best" from="-8857161#0" to="202957373#2"/>
    <trip id="veh16" type="veh_passenger" depart="58.72" departLane="best" departSpeed="max" from="8856577#0" to="8849849#1"/>
    <trip id="veh17" type="veh_passenger" depart="62.39" departLane="best" from="-8857459#5" to="8849028"/>
    <trip id="veh18" type="veh_passenger" depart="66.06" departLane="best" from="8851326#1" to="-1103221333#0"/>
    <trip id="veh19" type="veh_passenger" depart="69.73" departLane="best" from="-8852308#4" to="-8856577#0"/>
    <trip id="veh20" type="veh_passenger" depart="73.40" departLane="best" departSpeed="max" from="-202957373#3" to="-8853936"/>
    <trip id="veh21" type="veh_passenger" depart="77.07" departLane="best" departSpeed="max" from="-8849028" to="-8855496#4"/>
    <trip id="veh22" type="veh_passenger" depart="80.74" departLane="best" from="-8857459#2" to="-8859410#0"/>
    <trip id="veh23" type="veh_passenger" depart="84.41" departLane="best" from="-8856977#0" to="-8852917#0"/>
    <trip id="veh24" type="veh_passenger" depart="88.08" departLane="best" from="-8853068#2" to="8859410#8"/>
    <trip id="veh25" type="veh_passenger" depart="91.75" departLane="best" departSpeed="max" from="8849652#0" to="8849652#4"/>
    <trip id="veh26" type="veh_passenger" depart="95.42" departLane="best" from="-8850947" to="8852605"/>
    <trip id="veh27" type="veh_passenger" depart="99.09" departLane="best" departSpeed="max" from="8861161" to="8850360"/>
    <trip id="veh28" type="veh_passenger" depart="102.76" departLane="best" from="107771269#2" to="8851470#1"/>
    <trip id="veh29" type="veh_passenger" depart="106.43" departLane="best" departSpeed="max" from="8857005" to="8854466#3"/>
    <trip id="veh30" type="veh_passenger" depart="110.10" departLane="best" from="-8852308#6" to="-107771269#0"/>
    <trip id="veh31" type="veh_passenger" depart="113.77" departLane="best" departSpeed="max" from="-8855069" to="-8855220#1"/>
    <trip id="veh32" type="veh_passenger" depart="117.44" departLane="best" departSpeed="max" from="-8852013" to="8859647#1"/>
    <trip id="veh33" type="veh_passenger" depart="121.11" departLane="best" from="8857691#0" to="8847900"/>
    <trip id="veh34" type="veh_passenger" depart="124.78" departLane="best" from="8849652#6" to="-8860443#0"/>
    <trip id="veh35" type="veh_passenger" depart="128.45" departLane="best" from="8859410#3" to="-107771235#1"/>
    <trip id="veh36" type="veh_passenger" depart="132.12" departLane="best" from="8853068#0" to="8854466#1"/>
    <trip id="veh37" type="veh_passenger" depart="135.79" departLane="best" from="1103221333#1" to="-8855071"/>
    <trip id="veh38" type="veh_passenger" depart="139.46" departLane="best" departSpeed="max" from="178945504" to="8857807#0"/>
    <trip id="veh39" type="veh_passenger" depart="143.13" departLane="best" from="-8857459#4" to="-8853481#0"/>
    <trip id="veh40" type="veh_passenger" depart="146.80" departLane="best" departSpeed="max" from="8861283" to="197464470#0"/>
    <trip id="veh41" type="veh_passenger" depart="150.47" departLane="best" departSpeed="max" from="-8846222#5" to="-1103221333#0"/>
    <trip id="veh42" type="veh_passenger" depart="154.14" departLane="best" departSpeed="max" from="-8849034" to="8849933#1"/>
    <trip id="veh43" type="veh_passenger" depart="157.81" departLane="best" from="8854714#2" to="-8860543"/>
    <trip id="veh44" type="veh_passenger" depart="161.48" departLane="best" departSpeed="max" from="-202957371" to="-8859647#0"/>
    <trip id="veh45" type="veh_passenger" depart="165.15" departLane="best" departSpeed="max" from="8861283" to="202957350#1"/>
    <trip id="veh46" type="veh_passenger" depart="168.82" departLane="best" departSpeed="max" from="8860836" to="8857161#2"/>
    <trip id="veh47" type="veh_passenger" depart="172.49" departLane="best" from="107771235#3" to="8852597"/>
    <trip id="veh48" type="veh_passenger" depart="176.16" departLane="best" departSpeed="max" from="8850614" to="-202957359#2"/>
    <trip id="veh49" type="veh_passenger" depart="179.83" departLane="best" from="-8853068#2" to="8850547#0"/>
    <trip id="veh50" type="veh_passenger" depart="183.50" departLane="best" from="-8849038" to="8860849#6"/>
    <trip id="veh51" type="veh_passenger" depart="187.17" departLane="best" from="-8859410#6" to="-8860445#1"/>
    <trip id="veh52" type="veh_passenger" depart="190.84" departLane="best" from="-8857691#0" to="-8855071"/>
    <trip id="veh53" type="veh_passenger" depart="194.51" departLane="best" from="-8860849#9" to="-8851370#3"/>
    <trip id="veh54" type="veh_passenger" depart="198.18" departLane="best" from="8859410#2" to="-8857323"/>
    <trip id="veh55" type="veh_passenger" depart="201.85" departLane="best" from="-8854504#0" to="8850146"/>
    <trip id="veh56" type="veh_passenger" depart="205.52" departLane="best" from="202957359#4" to="-8850627#2"/>
    <trip id="veh57" type="veh_passenger" depart="209.19" departLane="best" departSpeed="max" from="8854466#0" to="202957350#1"/>
    <trip id="veh58" type="veh_passenger" depart="212.86" departLane="best" from="-107771217#0" to="-8857582#0"/>
    <trip id="veh59" type="veh_passenger" depart="216.53" departLane="best" from="-107771235#7" to="8859410#10"/>
    <trip id="veh60" type="veh_passenger" depart="220.20" departLane="best" departSpeed="max" from="8857765" to="8856577#1"/>
    <trip id="veh61" type="veh_passenger" depart="223.87" departLane="best" from="-8854843" to="202957325#0"/>
    <trip id="veh62" type="veh_passenger" depart="227.54" departLane="best" from="-8857691#1" to="8860178"/>
    <trip id="veh63" type="veh_passenger" depart="231.21" departLane="best" from="-8846222#3" to="-1103221333#1"/>
    <trip id="veh64" type="veh_passenger" depart="234.88" departLane="best" from="-202957372" to="8853519#1"/>
    <trip id="veh65" type="veh_passenger" depart="238.55" departLane="best" from="8853519#0" to="-8849849#4"/>
    <trip id="veh66" type="veh_passenger" depart="242.22" departLane="best" from="-8860445#3" to="202957373#0"/>
    <trip id="veh67" type="veh_passenger" depart="245.89" departLane="best" from="-8853068#0" to="8857452"/>
    <trip id="veh68" type="veh_passenger" depart="249.56" departLane="best" departSpeed="max" from="-8857889" to="-8852932#0"/>
    <trip id="veh69" type="veh_passenger" depart="253.23" departLane="best" from="107771235#9" to="8852605"/>
    <trip id="veh70" type="veh_passenger" depart="256.90" departLane="best" from="8851370#6" to="8857459#0"/>
    <trip id="veh71" type="veh_passenger" depart="260.57" departLane="best" departSpeed="max" from="8861283" to="8850885"/>
    <trip id="veh72" type="veh_passenger" depart="264.24" departLane="best" from="-8858886#3" to="-202957305#1"/>
    <trip id="veh73" type="veh_passenger" depart="267.91" departLane="best" from="-8855658" to="8849034"/>
    <trip id="veh74" type="veh_passenger" depart="271.58" departLane="best" from="-8852460#0" to="-8853482#0"/>
    <trip id="veh75" type="veh_passenger" depart="275.25" departLane="best" from="-202957373#0" to="8849960"/>
    <trip id="veh76" type="veh_passenger" depart="278.92" departLane="best" from="-8852308#6" to="8857889"/>
    <trip id="veh77" type="veh_passenger" depart="282.59" departLane="best" from="8857459#4" to="-202957359#2"/>
    <trip id="veh78" type="veh_passenger" depart="286.26" departLane="best" departSpeed="max" from="-8852465" to="8851300"/>
    <trip id="veh79" type="veh_passenger" depart="289.93" departLane="best" departSpeed="max" from="-8852021" to="-8849849#7"/>
    <trip id="veh80" type="veh_passenger" depart="293.60" departLane="best" departSpeed="max" from="8860443#0" to="8846222#4"/>
    <trip id="veh81" type="veh_passenger" depart="297.27" departLane="best" from="-8860445#1" to="8854714#0"/>
    <trip id="veh82" type="veh_passenger" depart="300.94" departLane="best" departSpeed="max" from="8855220#0" to="8852100#3"/>
    <trip id="veh83" type="veh_passenger" depart="304.61" departLane="best" from="-8848994#1" to="107771235#6"/>
    <trip id="veh84" type="veh_passenger" depart="308.28" departLane="best" departSpeed="max" from="-8857889" to="107771235#3"/>
    <trip id="veh85" type="veh_passenger" depart="311.94" departLane="best" departSpeed="max" from="8852297#0" to="8851326#1"/>
    <trip id="veh86" type="veh_passenger" depart="315.61" departLane="best" from="-8861159#0" to="-8846831"/>
    <trip id="veh87" type="veh_passenger" depart="319.28" departLane="best" from="-8857519#1" to="-8857765"/>
    <trip id="veh88" type="veh_passenger" depart="322.95" departLane="best" from="-8857459#5" to="-8854504#0"/>
    <trip id="veh89" type="veh_passenger" depart="326.62" departLane="best" departSpeed="max" from="-8851300" to="-8861283"/>
    <trip id="veh90" type="veh_passenger" depart="330.29" departLane="best" departSpeed="max" from="-8857889" to="8855496#4"/>
    <trip id="veh91" type="veh_passenger" depart="333.96" departLane="best" departSpeed="max" from="-8852605" to="8859368#0"/>
    <trip id="veh92" type="veh_passenger" depart="337.63" departLane="best" from="-8859368#0" to="8857161#2"/>
    <trip id="veh93" type="veh_passenger" depart="341.30" departLane="best" departSpeed="max" from="107771269#0" to="-1103221333#2"/>
    <trip id="veh94" type="veh_passenger" depart="344.97" departLane="best" departSpeed="max" from="8861283" to="8856577#2"/>
    <trip id="veh95" type="veh_passenger" depart="348.64" departLane="best" departSpeed="max" from="8860836" to="8859368#3"/>
    <trip id="veh96" type="veh_passenger" depart="352.31" departLane="best" from="8857161#2" to="-8851326#0"/>
    <trip id="veh97" type="veh_passenger" depart="355.98" departLane="best" from="-8857519#0" to="-202957325#0"/>
    <trip id="veh98" type="veh_passenger" depart="359.65" departLane="best" from="-8857161#0" to="8860938"/>
    <trip id="veh99" type="veh_passenger" depart="363.32" departLane="best" from="-8859410#7" to="-8860543"/>
    <trip id="veh100" type="veh_passenger" depart="366.99" departLane="best" from="8860464#3" to="8861159#1"/>
    <trip id="veh101" type="veh_passenger" depart="370.66" departLane="best" from="107771269#2" to="8852465"/>
    <trip id="veh102" type="veh_passenger" depart="374.33" departLane="best" departSpeed="max" from="-8849960" to="-8856609#0"/>
    <trip id="veh103" type="veh_passenger" depart="378.00" departLane="best" departSpeed="max" from="8860836" to="8849028"/>
    <trip id="veh104" type="veh_passenger" depart="381.67" departLane="best" departSpeed="max" from="107771269#0" to="-8853068#6"/>
    <trip id="veh105" type="veh_passenger" depart="385.34" departLane="best" departSpeed="max" from="-8860938" to="8856977#2"/>
    <trip id="veh106" type="veh_passenger" depart="389.01" departLane="best" departSpeed="max" from="-8849960" to="8860445#5"/>
    <trip id="veh107" type="veh_passenger" depart="392.68" departLane="best" departSpeed="max" from="-202957373#3" to="-8851470#1"/>
    <trip id="veh108" type="veh_passenger" depart="396.35" departLane="best" from="-202957325#1" to="-8851370#1"/>
    <trip id="veh109" type="veh_passenger" depart="400.02" departLane="best" departSpeed="max" from="-8852465" to="-8849652#6"/>
    <trip id="veh110" type="veh_passenger" depart="403.69" departLane="best" from="8858886#1" to="-8854466#0"/>
    <trip id="veh111" type="veh_passenger" depart="407.36" departLane="best" from="202957325#1" to="8849849#4"/>
    <trip id="veh112" type="veh_passenger" depart="411.03" departLane="best" from="107771235#10" to="8859410#7"/>
    <trip id="veh113" type="veh_passenger" depart="414.70" departLane="best" from="-8851470#1" to="8852465"/>
    <trip id="veh114" type="veh_passenger" depart="418.37" departLane="best" departSpeed="max" from="-8852465" to="-8860445#0"/>
    <trip id="veh115" type="veh_passenger" depart="422.04" departLane="best" from="8849933#1" to="-8856879"/>
    <trip id="veh116" type="veh_passenger" depart="425.71" departLane="best" departSpeed="max" from="-8855069" to="-8853482#1"/>
    <trip id="veh117" type="veh_passenger" depart="429.38" departLane="best" from="-202957373#1" to="107771235#0"/>
    <trip id="veh118" type="veh_passenger" depart="433.05" departLane="best" departSpeed="max" from="8861283" to="8861159#1"/>
    <trip id="veh119" type="veh_passenger" depart="436.72" departLane="best" from="-202957373#2" to="-8852932#2"/>
    <trip id="veh120" type="veh_passenger" depart="440.39" departLane="best" from="8853068#1" to="8859410#3"/>
    <trip id="veh121" type="veh_passenger" depart="444.06" departLane="best" departSpeed="max" from="8857765" to="8857459#4"/>
    <trip id="veh122" type="veh_passenger" depart="447.73" departLane="best" from="-8856977#0" to="8850885"/>
    <trip id="veh123" type="veh_passenger" depart="451.40" departLane="best" from="8856609#0" to="8852308#1"/>
    <trip id="veh124" type="veh_passenger" depart="455.07" departLane="best" from="202957372" to="8860938"/>
    <trip id="veh125" type="veh_passenger" depart="458.74" departLane="best" from="8849652#5" to="-107771235#2"/>
    <trip id="veh126" type="veh_passenger" depart="462.41" departLane="best" from="8855621#1" to="-8856879"/>
    <trip id="veh127" type="veh_passenger" depart="466.08" departLane="best" from="8849849#4" to="-8859643#0"/>
    <trip id="veh128" type="veh_passenger" depart="469.75" departLane="best" from="-8849652#7" to="-8849652#2"/>
    <trip id="veh129" type="veh_passenger" depart="473.42" departLane="best" departSpeed="max" from="-8849034" to="202957373#3"/>
    <trip id="veh130" type="veh_passenger" depart="477.09" departLane="best" from="8851370#5" to="-8852308#6"/>
    <trip id="veh131" type="veh_passenger" depart="480.76" departLane="best" departSpeed="max" from="8846831" to="-8855071"/>
    <trip id="veh132" type="veh_passenger" depart="484.43" departLane="best" from="-8860464#3" to="8857889"/>
    <trip id="veh133" type="veh_passenger" depart="488.10" departLane="best" from="8857161#0" to="-8846222#3"/>
    <trip id="veh134" type="veh_passenger" depart="491.77" departLane="best" departSpeed="max" from="-8857889" to="-8855496#3"/>
    <trip id="veh135" type="veh_passenger" depart="495.44" departLane="best" from="107771235#0" to="8854466#1"/>
    <trip id="veh136" type="veh_passenger" depart="499.11" departLane="best" from="8848994#0" to="-8855071"/>
    <trip id="veh137" type="veh_passenger" depart="502.78" departLane="best" departSpeed="max" from="-8858130" to="107771235#2"/>
    <trip id="veh138" type="veh_passenger" depart="506.45" departLane="best" departSpeed="max" from="-202957373#3" to="8857519#1"/>
    <trip id="veh139" type="veh_passenger" depart="510.12" departLane="best" departSpeed="max" from="8859410#0" to="202957371"/>
    <trip id="veh140" type="veh_passenger" depart="513.79" departLane="best" from="8856609#2" to="8849028"/>
    <trip id="veh141" type="veh_passenger" depart="517.46" departLane="best" from="-8849933#0" to="-8849849#3"/>
    <trip id="veh142" type="veh_passenger" depart="521.13" departLane="best" from="-8854845" to="8857807#1"/>
    <trip id="veh143" type="veh_passenger" depart="524.80" departLane="best" departSpeed="max" from="8855071" to="8857161#2"/>
    <trip id="veh144" type="veh_passenger" depart="528.47" departLane="best" from="8859368#1" to="-8852917#1"/>
    <trip id="veh145" type="veh_passenger" depart="532.14" departLane="best" departSpeed="max" from="-8852605" to="-8848994#0"/>
    <trip id="veh146" type="veh_passenger" depart="535.81" departLane="best" departSpeed="max" from="8854466#0" to="8857580"/>
    <trip id="veh147" type="veh_passenger" depart="539.48" departLane="best" departSpeed="max" from="-8857591" to="-8849849#5"/>
    <trip id="veh148" type="veh_passenger" depart="543.15" departLane="best" departSpeed="max" from="-8849960" to="-8859410#12"/>
    <trip id="veh149" type="veh_passenger" depart="546.82" departLane="best" from="8857580" to="8860849#1"/>
    <trip id="veh150" type="veh_passenger" depart="550.49" departLane="best" from="8855496#0" to="8857519#0"/>
    <trip id="veh151" type="veh_passenger" depart="554.16" departLane="best" from="107771269#1" to="8852904"/>
    <trip id="veh152" type="veh_passenger" depart="557.83" departLane="best" from="-8855496#2" to="8859410#12"/>
    <trip id="veh153" type="veh_passenger" depart="561.50" departLane="best" departSpeed="max" from="8855220#0" to="8857223"/>
    <trip id="veh154" type="veh_passenger" depart="565.17" departLane="best" from="8855496#0" to="-8855220#1"/>
    <trip id="veh155" type="veh_passenger" depart="568.84" departLane="best" from="8854504#2" to="-8849652#0"/>
    <trip id="veh156" type="veh_passenger" depart="572.51" departLane="best" from="8857582#1" to="8857161#0"/>
    <trip id="veh157" type="veh_passenger" depart="576.18" departLane="best" from="8852308#0" to="-8855621#1"/>
    <trip id="veh158" type="veh_passenger" depart="579.85" departLane="best" from="8859643#1" to="-8857161#1"/>
    <trip id="veh159" type="veh_passenger" depart="583.52" departLane="best" departSpeed="max" from="8855071" to="8853515#2"/>
    <trip id="veh160" type="veh_passenger" depart="587.19" departLane="best" from="107771269#1" to="-8852297#1"/>
    <trip id="veh161" type="veh_passenger" depart="590.86" departLane="best" from="-8855417" to="8857223"/>
    <trip id="veh162" type="veh_passenger" depart="594.53" departLane="best" departSpeed="max" from="8860543" to="-8855621#0"/>
    <trip id="veh163" type="veh_passenger" depart="598.20" departLane="best" from="8849652#4" to="-8860445#3"/>
    <trip id="veh164" type="veh_passenger" depart="601.87" departLane="best" from="-8860849#6" to="-202957359#1"/>
    <trip id="veh165" type="veh_passenger" depart="605.54" departLane="best" from="8860443#1" to="-8849652#2"/>
    <trip id="veh166" type="veh_passenger" depart="609.21" departLane="best" departSpeed="max" from="8860836" to="-8851370#3"/>
    <trip id="veh167" type="veh_passenger" depart="612.88" departLane="best" departSpeed="max" from="8860543" to="-8855220#1"/>
    <trip id="veh168" type="veh_passenger" depart="616.55" departLane="best" departSpeed="max" from="-8849034" to="8860849#4"/>
    <trip id="veh169" type="veh_passenger" depart="620.22" departLane="best" departSpeed="max" from="8852297#0" to="8857459#1"/>
    <trip id="veh170" type="veh_passenger" depart="623.89" departLane="best" from="202957359#2" to="197464470#0"/>
    <trip id="veh171" type="veh_passenger" depart="627.56" departLane="best" departSpeed="max" from="-8857223" to="8848994#1"/>
    <trip id="veh172" type="veh_passenger" depart="631.23" departLane="best" departSpeed="max" from="-8852904" to="8852308#5"/>
    <trip id="veh173" type="veh_passenger" depart="634.90" departLane="best" from="107771217#1" to="8859368#2"/>
    <trip id="veh174" type="veh_passenger" depart="638.57" departLane="best" from="107771235#9" to="8852597"/>
    <trip id="veh175" type="veh_passenger" depart="642.24" departLane="best" from="8852460#0" to="8851300"/>
    <trip id="veh176" type="veh_passenger" depart="645.91" departLane="best" departSpeed="max" from="-8856630" to="-202957359#1"/>
    <trip id="veh177" type="veh_passenger" depart="649.58" departLane="best" from="8849849#4" to="-8857582#1"/>
    <trip id="veh178" type="veh_passenger" depart="653.25" departLane="best" departSpeed="max" from="-8854982" to="-8856879"/>
    <trip id="veh179" type="veh_passenger" depart="656.92" departLane="best" from="8851370#6" to="-8856977#0"/>
    <trip id="veh180" type="veh_passenger" depart="660.59" departLane="best" departSpeed="max" from="-8854982" to="-8860464#0"/>
    <trip id="veh181" type="veh_passenger" depart="664.26" departLane="best" from="-8857519#1" to="8856577#1"/>
    <trip id="veh182" type="veh_passenger" depart="667.93" departLane="best" from="-8849652#2" to="-8860543"/>
    <trip id="veh183" type="veh_passenger" depart="671.60" departLane="best" from="8860445#0" to="8851370#3"/>
    <trip id="veh184" type="veh_passenger" depart="675.27" departLane="best" departSpeed="max" from="8859410#0" to="8849652#9"/>
    <trip id="veh185" type="veh_passenger" depart="678.94" departLane="best" from="-8854504#2" to="202957372"/>
    <trip id="veh186" type="veh_passenger" depart="682.61" departLane="best" from="-107771217#0" to="8855717#3"/>
    <trip id="veh187" type="veh_passenger" depart="686.28" departLane="best" departSpeed="max" from="-8858130" to="8849028"/>
    <trip id="veh188" type="veh_passenger" depart="689.95" departLane="best" from="8849652#6" to="-107771235#3"/>
    <trip id="veh189" type="veh_passenger" depart="693.62" departLane="best" from="-8859125#2" to="-8853068#0"/>
    <trip id="veh190" type="veh_passenger" depart="697.29" departLane="best" from="8860445#1" to="8857889"/>
    <trip id="veh191" type="veh_passenger" depart="700.96" departLane="best" departSpeed="max" from="8855071" to="-8851370#0"/>
    <trip id="veh192" type="veh_passenger" depart="704.63" departLane="best" from="-8846222#2" to="202957305#0"/>
    <trip id="veh193" type="veh_passenger" depart="708.30" departLane="best" departSpeed="max" from="8846831" to="8857691#1"/>
    <trip id="veh194" type="veh_passenger" depart="711.97" departLane="best" from="8855658" to="-8853482#0"/>
    <trip id="veh195" type="veh_passenger" depart="715.64" departLane="best" from="8849958#0" to="-8853486#0"/>
    <trip id="veh196" type="veh_passenger" depart="719.31" departLane="best" from="8851370#4" to="-107771269#0"/>
    <trip id="veh197" type="veh_passenger" depart="722.98" departLane="best" departSpeed="max" from="-8852597" to="107771235#9"/>
    <trip id="veh198" type="veh_passenger" depart="726.65" departLane="best" from="8857161#3" to="-202957359#3"/>
    <trip id="veh199" type="veh_passenger" depart="730.32" departLane="best" from="-8857689" to="-8849958#1"/>
    <trip id="veh200" type="veh_passenger" depart="733.99" departLane="best" from="-8851364" to="8852021"/>
    <trip id="veh201" type="veh_passenger" depart="737.66" departLane="best" from="-8860849#1" to="-8854466#0"/>
    <trip id="veh202" type="veh_passenger" depart="741.33" departLane="best" from="8849652#7" to="107771235#10"/>
    <trip id="veh203" type="veh_passenger" depart="745.00" departLane="best" departSpeed="max" from="-8849034" to="-8860836"/>
    <trip id="veh204" type="veh_passenger" depart="748.67" departLane="best" departSpeed="max" from="-8851238" to="-8860445#3"/>
    <trip id="veh205" type="veh_passenger" depart="752.34" departLane="best" from="107771217#0" to="-1103221333#1"/>
    <trip id="veh206" type="veh_passenger" depart="756.01" departLane="best" departSpeed="max" from="-8852605" to="-8856879"/>
    <trip id="veh207" type="veh_passenger" depart="759.68" departLane="best" from="-8859410#8" to="8855069"/>
    <trip id="veh208" type="veh_passenger" depart="763.35" departLane="best" from="8849849#7" to="8860938"/>
    <trip id="veh209" type="veh_passenger" depart="767.02" departLane="best" from="-202957325#1" to="-8860281#1"/>
    <trip id="veh210" type="veh_passenger" depart="770.69" departLane="best" from="8858886#2" to="-8849652#7"/>
    <trip id="veh211" type="veh_passenger" depart="774.36" departLane="best" from="8851370#6" to="197464470#0"/>
    <trip id="veh212" type="veh_passenger" depart="778.03" departLane="best" departSpeed="max" from="8856577#0" to="202957372"/>
    <trip id="veh213" type="veh_passenger" depart="781.70" departLane="best" from="8859368#0" to="8852932#2"/>
    <trip id="veh214" type="veh_passenger" depart="785.37" departLane="best" from="8860445#2" to="-8855071"/>
    <trip id="veh215" type="veh_passenger" depart="789.04" departLane="best" departSpeed="max" from="-8852605" to="8850107"/>
    <trip id="veh216" type="veh_passenger" depart="792.71" departLane="best" from="8853519#0" to="202957305#2"/>
    <trip id="veh217" type="veh_passenger" depart="796.38" departLane="best" from="8846222#2" to="-8855496#0"/>
    <trip id="veh218" type="veh_passenger" depart="800.05" departLane="best" departSpeed="max" from="-202957373#3" to="8855717#2"/>
    <trip id="veh219" type="veh_passenger" depart="803.72" departLane="best" from="8853482#1" to="-8857519#0"/>
    <trip id="veh220" type="veh_passenger" depart="807.39" departLane="best" from="107771235#9" to="-8849958#1"/>
    <trip id="veh221" type="veh_passenger" depart="811.06" departLane="best" from="-8852460#2" to="8852021"/>
    <trip id="veh222" type="veh_passenger" depart="814.73" departLane="best" departSpeed="max" from="8851370#0" to="-202957359#0"/>
    <trip id="veh223" type="veh_passenger" depart="818.40" departLane="best" departSpeed="max" from="-8857591" to="202957371"/>
    <trip id="veh224" type="veh_passenger" depart="822.07" departLane="best" from="-8857691#0" to="-8852460#2"/>
    <trip id="veh225" type="veh_passenger" depart="825.74" departLane="best" from="-8857807#2" to="8857889"/>
    <trip id="veh226" type="veh_passenger" depart="829.41" departLane="best" departSpeed="max" from="178945504" to="8852021"/>
    <trip id="veh227" type="veh_passenger" depart="833.08" departLane="best" from="-8857459#1" to="8854060"/>
    <trip id="veh228" type="veh_passenger" depart="836.75" departLane="best" from="-8857161#1" to="-107771235#10"/>
    <trip id="veh229" type="veh_passenger" depart="840.42" departLane="best" from="-8856577#1" to="8853486#1"/>
    <trip id="veh230" type="veh_passenger" depart="844.09" departLane="best" from="-8857453" to="-8860445#0"/>
    <trip id="veh231" type="veh_passenger" depart="847.76" departLane="best" from="-8857807#1" to="8853068#3"/>
    <trip id="veh232" type="veh_passenger" depart="851.43" departLane="best" departSpeed="max" from="107771269#0" to="8849643"/>
    <trip id="veh233" type="veh_passenger" depart="855.10" departLane="best" from="-8852100#2" to="-8853481#0"/>
    <trip id="veh234" type="veh_passenger" depart="858.77" departLane="best" from="-8858886#1" to="-107771269#0"/>
    <trip id="veh235" type="veh_passenger" depart="862.44" departLane="best" from="8855621#0" to="8851370#4"/>
    <trip id="veh236" type="veh_passenger" depart="866.11" departLane="best" from="-8857580" to="-8851298#3"/>