<?xml version="1.0" encoding="UTF-8"?>

<!-- generated on 2025-04-23 22:18:50.813970 by randomTrips.py v1_22_0+0002-63e50f52594
<configuration>
    <net-file value="osm.net.xml.gz"/>
    <output-trip-file value="osm.passenger.trips.xml"/>
    <route-file value="osm.passenger.rou.xml"/>
    <prefix value="veh"/>
    <trip-attributes value="departLane=&quot;best&quot;"/>
    <fringe-start-attributes value="departSpeed=&quot;max&quot;"/>
    <vehicle-class value="passenger"/>
    <lanes value="True"/>
    <fringe-factor value="5"/>
    <allow-fringe.min-length value="1000.0"/>
    <via-edge-types value="highway.motorway,highway.motorway_link,highway.trunk_link,highway.primary_link,highway.secondary_link,highway.tertiary_link"/>
    <min-distance value="300.0"/>
    <min-distance.fringe value="10.0"/>
    <remove-loops value="True"/>
    <validate value="True"/>
    <insertion-density value="12.0"/>
</configuration>
-->

<!-- generated on 2025-04-23 22:18:47 by Eclipse SUMO duarouter Version 1.22.0
<duarouterConfiguration xmlns:xsi="http://www.w3.org/2001/XMLSchema-instance" xsi:noNamespaceSchemaLocation="http://sumo.dlr.de/xsd/duarouterConfiguration.xsd">

    <input>
        <net-file value="osm.net.xml.gz"/>
        <route-files value="osm.passenger.trips.xml"/>
    </input>

    <output>
        <output-file value="osm.passenger.trips.xml.tmp"/>
        <alternatives-output value="NUL"/>
        <write-trips value="true"/>
    </output>

    <processing>
        <remove-loops value="true"/>
    </processing>

    <time>
        <begin value="0.0"/>
        <end value="3600.0"/>
    </time>

    <report>
        <no-warnings value="true"/>
        <ignore-errors value="true"/>
        <no-step-log value="true"/>
    </report>

</duarouterConfiguration>
-->

<routes xmlns:xsi="http://www.w3.org/2001/XMLSchema-instance" xsi:noNamespaceSchemaLocation="http://sumo.dlr.de/xsd/routes_file.xsd">
    <vType id="veh_passenger" vClass="passenger"/>
    <trip id="veh0" type="veh_passenger" depart="0.00" departLane="best" from="-13681397#2" to="-1223623559"/>
    <trip id="veh1" type="veh_passenger" depart="0.39" departLane="best" departSpeed="max" from="-13682260#1" to="-13682519#0"/>
    <trip id="veh2" type="veh_passenger" depart="0.78" departLane="best" from="13682089#0" to="13681857#1"/>
    <trip id="veh3" type="veh_passenger" depart="1.18" departLane="best" from="299709774#1" to="-13680636#5"/>
    <trip id="veh4" type="veh_passenger" depart="1.57" departLane="best" departSpeed="max" from="-292208483#2" to="129441570#7"/>
    <trip id="veh5" type="veh_passenger" depart="1.96" departLane="best" from="13681576#6" to="13680088"/>
    <trip id="veh6" type="veh_passenger" depart="2.35" departLane="best" from="-1291555117#2" to="-13682259#2"/>
    <trip id="veh7" type="veh_passenger" depart="2.74" departLane="best" from="-13680951#0" to="13680563#0"/>
    <trip id="veh8" type="veh_passenger" depart="3.14" departLane="best" departSpeed="max" from="-13681590" to="13681002#0"/>
    <trip id="veh9" type="veh_passenger" depart="3.53" departLane="best" from="1371610792#0" to="-1199248045#2"/>
    <trip id="veh10" type="veh_passenger" depart="3.92" departLane="best" from="13683154#0" to="13682089#0"/>
    <trip id="veh11" type="veh_passenger" depart="4.31" departLane="best" from="-13683176#3" to="-13681576#39"/>
    <trip id="veh12" type="veh_passenger" depart="4.70" departLane="best" from="895011683#1" to="-497742021#4"/>
    <trip id="veh13" type="veh_passenger" depart="5.10" departLane="best" from="13680423#9" to="-13680806#13"/>
    <trip id="veh14" type="veh_passenger" depart="5.49" departLane="best" from="203381205#0" to="13681103#3"/>
    <trip id="veh15" type="veh_passenger" depart="5.88" departLane="best" from="13683156#5" to="-13682447#1"/>
    <trip id="veh16" type="veh_passenger" depart="6.27" departLane="best" departSpeed="max" from="1223623564#0" to="895007899#39"/>
    <trip id="veh17" type="veh_passenger" depart="6.67" departLane="best" from="202055013#2" to="13680636#3"/>
    <trip id="veh18" type="veh_passenger" depart="7.06" departLane="best" departSpeed="max" from="191800384" to="13681276#3"/>
    <trip id="veh19" type="veh_passenger" depart="7.45" departLane="best" from="-292071087#0" to="-13680849#8"/>
    <trip id="veh20" type="veh_passenger" depart="7.84" departLane="best" from="-13681607#2" to="-13678720#1"/>
    <trip id="veh21" type="veh_passenger" depart="8.23" departLane="best" departSpeed="max" from="-13681661" to="-207749057#3"/>
    <trip id="veh22" type="veh_passenger" depart="8.63" departLane="best" from="-13680250" to="-13682747#0"/>
    <trip id="veh23" type="veh_passenger" depart="9.02" departLane="best" departSpeed="max" from="-13680466" to="-191800390"/>
    <trip id="veh24" type="veh_passenger" depart="9.41" departLane="best" from="13680739" to="-991065292#1"/>
    <trip id="veh25" type="veh_passenger" depart="9.80" departLane="best" departSpeed="max" from="-191800395#1" to="-13682397#0"/>
    <trip id="veh26" type="veh_passenger" depart="10.19" departLane="best" from="-13682185#3" to="-886084905#8"/>
    <trip id="veh27" type="veh_passenger" depart="10.59" departLane="best" from="-13680908#2" to="13681178#0"/>
    <trip id="veh28" type="veh_passenger" depart="10.98" departLane="best" from="-13681151#18" to="-13682441#1"/>
    <trip id="veh29" type="veh_passenger" depart="11.37" departLane="best" from="-13681097#5" to="1223122945#0"/>
    <trip id="veh30" type="veh_passenger" depart="11.76" departLane="best" departSpeed="max" from="923561810#0" to="13681424#6"/>
    <trip id="veh31" type="veh_passenger" depart="12.15" departLane="best" from="1253791876-AddedOffRampEdge" to="13681896#1"/>
    <trip id="veh32" type="veh_passenger" depart="12.55" departLane="best" from="202055018#14" to="13683137#2"/>
    <trip id="veh33" type="veh_passenger" depart="12.94" departLane="best" from="13681687#4" to="-1317454980#0"/>
    <trip id="veh34" type="veh_passenger" depart="13.33" departLane="best" departSpeed="max" from="-13682763#1" to="184025991#1"/>
    <trip id="veh35" type="veh_passenger" depart="13.72" departLane="best" from="13681524#26" to="886579419#0"/>
    <trip id="veh36" type="veh_passenger" depart="14.11" departLane="best" from="292121802#27" to="-292129113#2"/>
    <trip id="veh37" type="veh_passenger" depart="14.51" departLane="best" departSpeed="max" from="13681071#0" to="1223122971#0"/>
    <trip id="veh38" type="veh_passenger" depart="14.90" departLane="best" from="518342938#6" to="129441444#38"/>
    <trip id="veh39" type="veh_passenger" depart="15.29" departLane="best" from="-13682158#0" to="-13682967#0"/>
    <trip id="veh40" type="veh_passenger" depart="15.68" departLane="best" from="129441440" to="-1371611485#1"/>
    <trip id="veh41" type="veh_passenger" depart="16.08" departLane="best" from="13678118#1" to="315560208#1"/>
    <trip id="veh42" type="veh_passenger" depart="16.47" departLane="best" departSpeed="max" from="-292071084" to="-13682480#1"/>
    <trip id="veh43" type="veh_passenger" depart="16.86" departLane="best" from="990662002#2" to="13680167"/>
    <trip id="veh44" type="veh_passenger" depart="17.25" departLane="best" from="-13680416#1" to="-13679002#4"/>
    <trip id="veh45" type="veh_passenger" depart="17.64" departLane="best" from="-13680555#2" to="13681360"/>
    <trip id="veh46" type="veh_passenger" depart="18.04" departLane="best" departSpeed="max" from="13682888" to="1223623556"/>
    <trip id="veh47" type="veh_passenger" depart="18.43" departLane="best" departSpeed="max" from="-13679505#1" to="1223122949"/>
    <trip id="veh48" type="veh_passenger" depart="18.82" departLane="best" from="990662001#0-AddedOnRampEdge" to="13680433"/>
    <trip id="veh49" type="veh_passenger" depart="19.21" departLane="best" from="895034485" to="292119515"/>
    <trip id="veh50" type="veh_passenger" depart="19.60" departLane="best" from="-1223122982" to="13682386#14"/>
    <trip id="veh51" type="veh_passenger" depart="20.00" departLane="best" from="13681397#2" to="13680500#5"/>
    <trip id="veh52" type="veh_passenger" depart="20.39" departLane="best" from="-13682185#0" to="13681425"/>
    <trip id="veh53" type="veh_passenger" depart="20.78" departLane="best" from="-13680566#0" to="1223623587"/>
    <trip id="veh54" type="veh_passenger" depart="21.17" departLane="best" from="886071145#2" to="895007899#3"/>
    <trip id="veh55" type="veh_passenger" depart="21.56" departLane="best" departSpeed="max" from="292121802#20" to="-1371611485#5"/>
    <trip id="veh56" type="veh_passenger" depart="21.96" departLane="best" from="1223122962#1-AddedOnRampEdge" to="-13681964#9"/>
    <trip id="veh57" type="veh_passenger" depart="22.35" departLane="best" from="486471032#2" to="292131208"/>
    <trip id="veh58" type="veh_passenger" depart="22.74" departLane="best" departSpeed="max" from="-13682510" to="13681412#0"/>
    <trip id="veh59" type="veh_passenger" depart="23.13" departLane="best" from="13680334#3" to="-13681576#13"/>
    <trip id="veh60" type="veh_passenger" depart="23.52" departLane="best" from="-13682478#3" to="13680531"/>
    <trip id="veh61" type="veh_passenger" depart="23.92" departLane="best" from="13682638#7" to="13680435#3"/>
    <trip id="veh62" type="veh_passenger" depart="24.31" departLane="best" departSpeed="max" from="-1032377601#2" to="-315560019"/>
    <trip id="veh63" type="veh_passenger" depart="24.70" departLane="best" from="-1223123013" to="791817810"/>
    <trip id="veh64" type="veh_passenger" depart="25.09" departLane="best" from="-292131204#0" to="207883187#0"/>
    <trip id="veh65" type="veh_passenger" depart="25.49" departLane="best" departSpeed="max" from="-13682644#4" to="-13679911#2"/>
    <trip id="veh66" type="veh_passenger" depart="25.88" departLane="best" from="-292129761#1" to="886580097"/>
    <trip id="veh67" type="veh_passenger" depart="26.27" departLane="best" departSpeed="max" from="-13680355" to="13681102#0"/>
    <trip id="veh68" type="veh_passenger" depart="26.66" departLane="best" from="-13679832#0" to="-13682814#1"/>
    <trip id="veh69" type="veh_passenger" depart="27.05" departLane="best" from="13682468#0" to="13681276#2"/>
    <trip id="veh70" type="veh_passenger" depart="27.45" departLane="best" from="-990656282#0" to="-13680617#7"/>
    <trip id="veh71" type="veh_passenger" depart="27.84" departLane="best" from="-13682158#1" to="292134209#1-AddedOnRampEdge"/>
    <trip id="veh72" type="veh_passenger" depart="28.23" departLane="best" departSpeed="max" from="-308276205" to="13682432#0"/>
    <trip id="veh73" type="veh_passenger" depart="28.62" departLane="best" from="1223623570" to="-13682447#2"/>
    <trip id="veh74" type="veh_passenger" depart="29.01" departLane="best" departSpeed="max" from="-13681410" to="-292121797#0"/>
    <trip id="veh75" type="veh_passenger" depart="29.41" departLane="best" from="990656282#1" to="-13681524#36"/>
    <trip id="veh76" type="veh_passenger" depart="29.80" departLane="best" from="-483082949#2" to="-13680347#6"/>
    <trip id="veh77" type="veh_passenger" depart="30.19" departLane="best" departSpeed="max" from="-13680653" to="-13682519#6"/>
    <trip id="veh78" type="veh_passenger" depart="30.58" departLane="best" departSpeed="max" from="-13683170#2" to="13680983#2"/>
    <trip id="veh79" type="veh_passenger" depart="30.97" departLane="best" departSpeed="max" from="-13681705" to="-1223123008#3"/>
    <trip id="veh80" type="veh_passenger" depart="31.37" departLane="best" departSpeed="max" from="-13679879#2" to="13681384"/>
    <trip id="veh81" type="veh_passenger" depart="31.76" departLane="best" from="-13681687#3" to="486471031#3"/>
    <trip id="veh82" type="veh_passenger" depart="32.15" departLane="best" from="-292071093#1" to="-13680423#10"/>
    <trip id="veh83" type="veh_passenger" depart="32.54" departLane="best" from="13681863#0" to="13680247#1"/>
    <trip id="veh84" type="veh_passenger" depart="32.93" departLane="best" from="-13681524#61" to="13681310#2"/>
    <trip id="veh85" type="veh_passenger" depart="33.33" departLane="best" from="791817812" to="13680783#7"/>
    <trip id="veh86" type="veh_passenger" depart="33.72" departLane="best" from="-923561811#2" to="1371610797#3"/>
    <trip id="veh87" type="veh_passenger" depart="34.11" departLane="best" from="13683176#0" to="-13682133"/>
    <trip id="veh88" type="veh_passenger" depart="34.50" departLane="best" departSpeed="max" from="-13680433" to="1223623577"/>
    <trip id="veh89" type="veh_passenger" depart="34.89" departLane="best" departSpeed="max" from="-308276205" to="1329813692"/>
    <trip id="veh90" type="veh_passenger" depart="35.29" departLane="best" from="-13682006#0" to="13681803#9"/>
    <trip id="veh91" type="veh_passenger" depart="35.68" departLane="best" from="89627448#0" to="13680808#1"/>
    <trip id="veh92" type="veh_passenger" depart="36.07" departLane="best" from="-292071091#1" to="589357400#0"/>
    <trip id="veh93" type="veh_passenger" depart="36.46" departLane="best" from="-292071086#7" to="13682991"/>
    <trip id="veh94" type="veh_passenger" depart="36.86" departLane="best" departSpeed="max" from="-13681353" to="129441440"/>
    <trip id="veh95" type="veh_passenger" depart="37.25" departLane="best" departSpeed="max" from="-292208483#2" to="-191800391"/>
    <trip id="veh96" type="veh_passenger" depart="37.64" departLane="best" from="-13682006#5" to="76608596#2"/>
    <trip id="veh97" type="veh_passenger" depart="38.03" departLane="best" departSpeed="max" from="-557585563#1" to="-13681576#29"/>
    <trip id="veh98" type="veh_passenger" depart="38.42" departLane="best" from="1223623595#0" to="13679424#2"/>
    <trip id="veh99" type="veh_passenger" depart="38.82" departLane="best" from="991065298#0" to="286684384#1"/>
    <trip id="veh100" type="veh_passenger" depart="39.21" departLane="best" from="895011686#17" to="76608604#1"/>
    <trip id="veh101" type="veh_passenger" depart="39.60" departLane="best" departSpeed="max" from="207749057#0" to="-13681726#0"/>
    <trip id="veh102" type="veh_passenger" depart="39.99" departLane="best" from="-1202223496#1" to="-13682441#1"/>
    <trip id="veh103" type="veh_passenger" depart="40.38" departLane="best" from="-292071087#1" to="-13679911#2"/>
    <trip id="veh104" type="veh_passenger" depart="40.78" departLane="best" from="-202055014#18" to="89626865#1-AddedOnRampEdge"/>
    <trip id="veh105" type="veh_passenger" depart="41.17" departLane="best" from="-13682158#2" to="1371610797#1"/>
    <trip id="veh106" type="veh_passenger" depart="41.56" departLane="best" departSpeed="max" from="-886084902#1" to="1223623557"/>
    <trip id="veh107" type="veh_passenger" depart="41.95" departLane="best" from="895011683#1" to="975812797#1"/>
    <trip id="veh108" type="veh_passenger" depart="42.34" departLane="best" from="1223623597" to="-13682326"/>
    <trip id="veh109" type="veh_passenger" depart="42.74" departLane="best" from="13680997#0" to="-292071070#0"/>
    <trip id="veh110" type="veh_passenger" depart="43.13" departLane="best" from="895011686#17" to="-13680903#3"/>
    <trip id="veh111" type="veh_passenger" depart="43.52" departLane="best" from="1223623576" to="13682685"/>
    <trip id="veh112" type="veh_passenger" depart="43.91" departLane="best" from="-13678864" to="13680958#0"/>
    <trip id="veh113" type="veh_passenger" depart="44.30" departLane="best" from="1223122966" to="292071092#1"/>
    <trip id="veh114" type="veh_passenger" depart="44.70" departLane="best" departSpeed="max" from="-13681060" to="895011684#0"/>
    <trip id="veh115" type="veh_passenger" depart="45.09" departLane="best" departSpeed="max" from="-13680252#1" to="-13682083#2"/>
    <trip id="veh116" type="veh_passenger" depart="45.48" departLane="best" from="-13679424#1" to="13681851#0"/>
    <trip id="veh117" type="veh_passenger" depart="45.87" departLane="best" from="-13681803#9" to="13681110#1"/>
    <trip id="veh118" type="veh_passenger" depart="46.27" departLane="best" from="299709771#2" to="-13682967#0"/>
    <trip id="veh119" type="veh_passenger" depart="46.66" departLane="best" from="13679408#0" to="13681282#3"/>
    <trip id="veh120" type="veh_passenger" depart="47.05" departLane="best" departSpeed="max" from="-292131207#1" to="13680947#3"/>
    <trip id="veh121" type="veh_passenger" depart="47.44" departLane="best" from="1223123016" to="886084901#0"/>
    <trip id="veh122" type="veh_passenger" depart="47.83" departLane="best" from="-13681433#4" to="13682305#0"/>
    <trip id="veh123" type="veh_passenger" depart="48.23" departLane="best" from="13681872#1" to="1223122971#0"/>
    <trip id="veh124" type="veh_passenger" depart="48.62" departLane="best" departSpeed="max" from="13681250#0" to="292071086#7"/>
    <trip id="veh125" type="veh_passenger" depart="49.01" departLane="best" departSpeed="max" from="-13682772#2" to="13682729"/>
    <trip id="veh126" type="veh_passenger" depart="49.40" departLane="best" departSpeed="max" from="-13680088" to="129441444#33-AddedOnRampEdge"/>
    <trip id="veh127" type="veh_passenger" depart="49.79" departLane="best" departSpeed="max" from="991065292#0" to="-990656282#2"/>
    <trip id="veh128" type="veh_passenger" depart="50.19" departLane="best" departSpeed="max" from="-13680088" to="-13682433#8"/>
    <trip id="veh129" type="veh_passenger" depart="50.58" departLane="best" from="-13682158#2" to="886060540"/>
    <trip id="veh130" type="veh_passenger" depart="50.97" departLane="best" from="292134209#1" to="299709769#3-AddedOnRampEdge"/>
    <trip id="veh131" type="veh_passenger" depart="51.36" departLane="best" departSpeed="max" from="-191800389" to="13681607#3"/>
    <trip id="veh132" type="veh_passenger" depart="51.75" departLane="best" departSpeed="max" from="191800392" to="13682155"/>
    <trip id="veh133" type="veh_passenger" depart="52.15" departLane="best" from="13680381#3" to="89627448#0-AddedOnRampEdge"/>
    <trip id="veh134" type="veh_passenger" depart="52.54" departLane="best" from="13681019" to="-1223122921"/>
    <trip id="veh135" type="veh_passenger" depart="52.93" departLane="best" from="180175600#0" to="-292071075#4"/>
    <trip id="veh136" type="veh_passenger" depart="53.32" departLane="best" departSpeed="max" from="13681109" to="886292837#0"/>
    <trip id="veh137" type="veh_passenger" depart="53.71" departLane="best" departSpeed="max" from="-13680768" to="13681097#6"/>
    <trip id="veh138" type="veh_passenger" depart="54.11" departLane="best" departSpeed="max" from="-13680535" to="13680639"/>
    <trip id="veh139" type="veh_passenger" depart="54.50" departLane="best" departSpeed="max" from="-13682245" to="13681110#3"/>
    <trip id="veh140" type="veh_passenger" depart="54.89" departLane="best" from="-13681803#4" to="-13682340#0"/>
    <trip id="veh141" type="veh_passenger" depart="55.28" departLane="best" from="13680663#9" to="1371611487"/>
    <trip id="veh142" type="veh_passenger" depart="55.67" departLane="best" from="1223122926#2" to="486471031#2"/>
    <trip id="veh143" type="veh_passenger" depart="56.07" departLane="best" from="119645061#0" to="13680739"/>
    <trip id="veh144" type="veh_passenger" depart="56.46" departLane="best" departSpeed="max" from="-308276205" to="-191800387"/>
    <trip id="veh145" type="veh_passenger" depart="56.85" departLane="best" from="-1159061926#19" to="-13682989#3"/>
    <trip id="veh146" type="veh_passenger" depart="57.24" departLane="best" from="-13680780#4" to="1371611484#1"/>
    <trip id="veh147" type="veh_passenger" depart="57.64" departLane="best" from="-13682172#6" to="13680633#0"/>
    <trip id="veh148" type="veh_passenger" depart="58.03" departLane="best" from="-315560180#5" to="1223122924#0"/>
    <trip id="veh149" type="veh_passenger" depart="58.42" departLane="best" departSpeed="max" from="-13680134#1" to="299709774#0"/>
    <trip id="veh150" type="veh_passenger" depart="58.81" departLane="best" from="-315560180#4" to="13680566#1"/>
    <trip id="veh151" type="veh_passenger" depart="59.20" departLane="best" departSpeed="max" from="191800394#0" to="13680939#0"/>
    <trip id="veh152" type="veh_passenger" depart="59.60" departLane="best" departSpeed="max" from="-13680912" to="-13681250#1"/>
    <trip id="veh153" type="veh_passenger" depart="59.99" departLane="best" departSpeed="max" from="-13682685" to="359199025"/>
    <trip id="veh154" type="veh_passenger" depart="60.38" departLane="best" departSpeed="max" from="13682967#0" to="292119515"/>
    <trip id="veh155" type="veh_passenger" depart="60.77" departLane="best" from="-315559962#1" to="-13682398"/>
    <trip id="veh156" type="veh_passenger" depart="61.16" departLane="best" from="-13682006#3" to="-13680893#0"/>
    <trip id="veh157" type="veh_passenger" depart="61.56" departLane="best" departSpeed="max" from="13682714#0" to="299709774#1-AddedOffRampEdge"/>
    <trip id="veh158" type="veh_passenger" depart="61.95" departLane="best" from="-292083322#1" to="13681299#1"/>
    <trip id="veh159" type="veh_passenger" depart="62.34" departLane="best" departSpeed="max" from="-13680983#2" to="791817810"/>
    <trip id="veh160" type="veh_passenger" depart="62.73" departLane="best" departSpeed="max" from="292071092#0" to="895034493-AddedOnRampEdge"/>
    <trip id="veh161" type="veh_passenger" depart="63.12" departLane="best" from="-1371610800#0" to="299709771#1"/>
    <trip id="veh162" type="veh_passenger" depart="63.52" departLane="best" from="-1291318427#0" to="13682494#5"/>
    <trip id="veh164" type="veh_passenger" depart="64.30" departLane="best" from="895034486#0" to="292123187#1"/>
    <trip id="veh165" type="veh_passenger" depart="64.69" departLane="best" from="-1371610800#0" to="-180175601"/>
    <trip id="veh166" type="veh_passenger" depart="65.08" departLane="best" departSpeed="max" from="13682798#0" to="-13680961#2"/>
    <trip id="veh167" type="veh_passenger" depart="65.48" departLane="best" from="292119473#0" to="292119497"/>
    <trip id="veh168" type="veh_passenger" depart="65.87" departLane="best" from="-13681607#6" to="191800400#5"/>
    <trip id="veh169" type="veh_passenger" depart="66.26" departLane="best" departSpeed="max" from="-886579419#4" to="-292082960"/>
    <trip id="veh170" type="veh_passenger" depart="66.65" departLane="best" departSpeed="max" from="13682967#0" to="13682795"/>
    <trip id="veh171" type="veh_passenger" depart="67.05" departLane="best" from="-1223623558" to="-13682172#6"/>
    <trip id="veh172" type="veh_passenger" depart="67.44" departLane="best" departSpeed="max" from="-13682968" to="292123187#1"/>
    <trip id="veh173" type="veh_passenger" depart="67.83" departLane="best" from="895011684#9-AddedOffRampEdge" to="-191800394#0"/>
    <trip id="veh174" type="veh_passenger" depart="68.22" departLane="best" from="13680806#8" to="1223122977#1-AddedOnRampEdge"/>
    <trip id="veh175" type="veh_passenger" depart="68.61" departLane="best" departSpeed="max" from="89626856" to="13680500#1"/>
    <trip id="veh176" type="veh_passenger" depart="69.01" departLane="best" from="-886084921" to="13681097#5"/>
    <trip id="veh177" type="veh_passenger" depart="69.40" departLane="best" from="895011686#4" to="-13681964#5"/>
    <trip id="veh178" type="veh_passenger" depart="69.79" departLane="best" from="895011684#21" to="-180175600#10"/>
    <trip id="veh179" type="veh_passenger" depart="70.18" departLane="best" departSpeed="max" from="-13680550#2" to="1223623587"/>
    <trip id="veh180" type="veh_passenger" depart="70.57" departLane="best" departSpeed="max" from="13682001#0" to="-292121802#26"/>
    <trip id="veh181" type="veh_passenger" depart="70.97" departLane="best" from="-13682061#0" to="13682220"/>
    <trip id="veh182" type="veh_passenger" depart="71.36" departLane="best" from="1158072208#2" to="76608602#1-AddedOffRampEdge"/>
    <trip id="veh183" type="veh_passenger" depart="71.75" departLane="best" from="1223623567" to="13682372#0"/>
    <trip id="veh184" type="veh_passenger" depart="72.14" departLane="best" from="13682183#0" to="13681803#11"/>
    <trip id="veh185" type="veh_passenger" depart="72.53" departLane="best" departSpeed="max" from="-191741380#1" to="-13680416#0"/>
    <trip id="veh186" type="veh_passenger" depart="72.93" departLane="best" departSpeed="max" from="13681109" to="-378520702#2"/>
    <trip id="veh187" type="veh_passenger" depart="73.32" departLane="best" from="-13682747#1" to="292071081"/>
    <trip id="veh188" type="veh_passenger" depart="73.71" departLane="best" from="13681815#2" to="-292071087#2"/>
    <trip id="veh189" type="veh_passenger" depart="74.10" departLane="best" departSpeed="max" from="-13682691#2" to="1223123008#0"/>
    <trip id="veh190" type="veh_passenger" depart="74.49" departLane="best" from="-292071091#0" to="-292071069#0"/>
    <trip id="veh191" type="veh_passenger" depart="74.89" departLane="best" from="-13680703#0" to="1223623551"/>
    <trip id="veh192" type="veh_passenger" depart="75.28" departLane="best" from="-886097033#1" to="-13681863#4"/>
    <trip id="veh193" type="veh_passenger" depart="75.67" departLane="best" departSpeed="max" from="315560051" to="13681248"/>
    <trip id="veh194" type="veh_passenger" depart="76.06" departLane="best" from="-13682522" to="13680589"/>
    <trip id="veh195" type="veh_passenger" depart="76.46" departLane="best" departSpeed="max" from="-1032377601#2" to="202055018#0"/>
    <trip id="veh196" type="veh_passenger" depart="76.85" departLane="best" departSpeed="max" from="-315560195#1" to="13680908#2"/>
    <trip id="veh197" type="veh_passenger" depart="77.24" departLane="best" from="13681030#0" to="1329813688"/>
    <trip id="veh198" type="veh_passenger" depart="77.63" departLane="best" from="-557152960" to="13682478#3"/>
    <trip id="veh199" type="veh_passenger" depart="78.02" departLane="best" from="-93917507#1" to="-378520702#2"/>
    <trip id="veh200" type="veh_passenger" depart="78.42" departLane="best" departSpeed="max" from="13682967#0" to="13681803#18"/>
    <trip id="veh201" type="veh_passenger" depart="78.81" departLane="best" from="-13680342#8" to="13680330"/>
    <trip id="veh202" type="veh_passenger" depart="79.20" departLane="best" from="13680656#1" to="-486471032#0"/>
    <trip id="veh203" type="veh_passenger" depart="79.59" departLane="best" from="-180175600#8" to="13682722#0"/>
    <trip id="veh204" type="veh_passenger" depart="79.98" departLane="best" from="13681250#2" to="-13682519#6"/>
    <trip id="veh205" type="veh_passenger" depart="80.38" departLane="best" from="-13681402#7" to="1223623554"/>
    <trip id="veh206" type="veh_passenger" depart="80.77" departLane="best" departSpeed="max" from="-13681895" to="13678059"/>
    <trip id="veh207" type="veh_passenger" depart="81.16" departLane="best" from="-207762597#1" to="-13680423#32"/>
    <trip id="veh208" type="veh_passenger" depart="81.55" departLane="best" departSpeed="max" from="-292123188" to="13681381"/>
    <trip id="veh209" type="veh_passenger" depart="81.94" departLane="best" from="-13681391#1" to="13682085"/>
    <trip id="veh210" type="veh_passenger" depart="82.34" departLane="best" from="1223122952" to="-13682890#5"/>
    <trip id="veh211" type="veh_passenger" depart="82.73" departLane="best" departSpeed="max" from="13681071#0" to="-119655169#1"/>
    <trip id="veh212" type="veh_passenger" depart="83.12" departLane="best" departSpeed="max" from="13682315#0" to="13682982#0"/>
    <trip id="veh213" type="veh_passenger" depart="83.51" departLane="best" departSpeed="max" from="-13680535" to="1223623563#1"/>
    <trip id="veh214" type="veh_passenger" depart="83.90" departLane="best" from="-13681204#6" to="895007899#50"/>
    <trip id="veh215" type="veh_passenger" depart="84.30" departLane="best" from="1223123003" to="-13679424#0"/>
    <trip id="veh216" type="veh_passenger" depart="84.69" departLane="best" from="-13682006#2" to="292071083"/>
    <trip id="veh217" type="veh_passenger" depart="85.08" departLane="best" from="-886309723" to="180175684#3"/>
    <trip id="veh218" type="veh_passenger" depart="85.47" departLane="best" from="-13681190#0" to="89627448#1"/>
    <trip id="veh219" type="veh_passenger" depart="85.86" departLane="best" from="-13679424#3" to="894678059#1"/>
    <trip id="veh220" type="veh_passenger" depart="86.26" departLane="best" from="299709772" to="13681230"/>
    <trip id="veh221" type="veh_passenger" depart="86.65" departLane="best" from="-13681803#9" to="-13679911#4"/>
    <trip id="veh222" type="veh_passenger" depart="87.04" departLane="best" departSpeed="max" from="191800387" to="13680589"/>
    <trip id="veh223" type="veh_passenger" depart="87.43" departLane="best" from="-315559849#1" to="13682589"/>
    <trip id="veh224" type="veh_passenger" depart="87.83" departLane="best" from="-977370176#3" to="-1371610799#0"/>
    <trip id="veh225" type="veh_passenger" depart="88.22" departLane="best" departSpeed="max" from="-13681942#1" to="13681406#6"/>
    <trip id="veh226" type="veh_passenger" depart="88.61" departLane="best" from="13682468#0" to="13680395"/>
    <trip id="veh227" type="veh_passenger" depart="89.00" departLane="best" from="13680563#2" to="-191800382"/>
    <trip id="veh228" type="veh_passenger" depart="89.39" departLane="best" from="-13680185#1" to="-202055015"/>
    <trip id="veh229" type="veh_passenger" depart="89.79" departLane="best" departSpeed="max" from="-13682245" to="-315559809"/>
    <trip id="veh230" type="veh_passenger" depart="90.18" departLane="best" from="1223623571" to="-13681402#9"/>
    <trip id="veh231" type="veh_passenger" depart="90.57" departLane="best" from="-13681726#0" to="13682061#1"/>
    <trip id="veh232" type="veh_passenger" depart="90.96" departLane="best" from="-13681607#6" to="-13680252#0"/>
    <trip id="veh233" type="veh_passenger" depart="91.35" departLane="best" from="292119473#0" to="13680552"/>
    <trip id="veh234" type="veh_passenger" depart="91.75" departLane="best" from="-292129734" to="13682386#12"/>