<?xml version="1.0" encoding="UTF-8"?>

<!-- generated on 2025-04-22 11:53:25.622255 by findAllRoutes.py v1_22_0+0002-63e50f52594
  options: -n osm.net.xml.gz -o new.rou.xml
-->

<routes xmlns:xsi="http://www.w3.org/2001/XMLSchema-instance" xsi:noNamespaceSchemaLocation="http://sumo.dlr.de/xsd/routes_file.xsd">
    <route id="0" edges="-1022968380"/>
    <route id="1" edges="-1022968381#0"/>
    <route id="2" edges="-1022968381#2"/>
    <route id="3" edges="-107938636#1"/>
    <route id="4" edges="-222835485#0"/>
    <route id="5" edges="-222835485#4"/>
    <route id="6" edges="-222835485#5"/>
    <route id="7" edges="-458788170"/>
    <route id="8" edges="-764337089#0"/>
    <route id="9" edges="-764337089#12"/>
    <route id="10" edges="-764337089#15"/>
    <route id="11" edges="-764337089#16"/>
    <route id="12" edges="-764337089#3"/>
    <route id="13" edges="-764337089#6"/>
    <route id="14" edges="-764337089#7"/>
    <route id="15" edges="-764337089#8"/>
    <route id="16" edges="-7942627"/>
    <route id="17" edges="-7943107"/>
    <route id="18" edges="-7943815"/>
    <route id="19" edges="-7944238"/>
    <route id="20" edges="-7944853"/>
    <route id="21" edges="-7944945"/>
    <route id="22" edges="-7944964"/>
    <route id="23" edges="-7945099"/>
    <route id="24" edges="-7945136"/>
    <route id="25" edges="-7945153"/>
    <route id="26" edges="-7945324#0"/>
    <route id="27" edges="-7945324#1"/>
    <route id="28" edges="-7945429"/>
    <route id="29" edges="-7945901"/>
    <route id="30" edges="-7946146#0"/>
    <route id="31" edges="-7946146#1"/>
    <route id="32" edges="-7946146#2"/>
    <route id="33" edges="-7946205"/>
    <route id="34" edges="-7946422#0"/>
    <route id="35" edges="-7946422#1"/>
    <route id="36" edges="-7946444#0"/>
    <route id="37" edges="-7946444#1"/>
    <route id="38" edges="-7946444#2"/>
    <route id="39" edges="-7946715#1"/>
    <route id="40" edges="-7946715#3"/>
    <route id="41" edges="-7946723#0"/>
    <route id="42" edges="-7946723#1"/>
    <route id="43" edges="-7946927#0"/>
    <route id="44" edges="-7946927#1"/>
    <route id="45" edges="-7946927#2"/>
    <route id="46" edges="-7946927#3"/>
    <route id="47" edges="-7946977#0"/>
    <route id="48" edges="-7946977#1"/>
    <route id="49" edges="-7946977#3"/>
    <route id="50" edges="-7946977#4"/>
    <route id="51" edges="-7946977#5"/>
    <route id="52" edges="-7946983#0"/>
    <route id="53" edges="-7946983#1"/>
    <route id="54" edges="-7946983#2"/>
    <route id="55" edges="-7946983#3"/>
    <route id="56" edges="-7946983#4"/>
    <route id="57" edges="-7946983#6"/>
    <route id="58" edges="-7947052"/>
    <route id="59" edges="-7947160"/>
    <route id="60" edges="-7947238#0"/>
    <route id="61" edges="-7947238#12"/>
    <route id="62" edges="-7947238#13"/>
    <route id="63" edges="-7947238#14"/>
    <route id="64" edges="-7947238#2"/>
    <route id="65" edges="-7947238#3"/>
    <route id="66" edges="-7947238#4"/>
    <route id="67" edges="-7947238#5"/>
    <route id="68" edges="-7947238#8"/>
    <route id="69" edges="-7947238#9"/>
    <route id="70" edges="-7947245"/>
    <route id="71" edges="-7947261"/>
    <route id="72" edges="-7947292#1"/>
    <route id="73" edges="-7947292#2"/>
    <route id="74" edges="-7947481"/>
    <route id="75" edges="-7947507"/>
    <route id="76" edges="-7947514#0"/>
    <route id="77" edges="-7947524#0"/>
    <route id="78" edges="-7947526#0"/>
    <route id="79" edges="-7947526#1"/>
    <route id="80" edges="-7947526#2"/>
    <route id="81" edges="-7947526#3"/>
    <route id="82" edges="-7947568"/>
    <route id="83" edges="-7947573#0"/>
    <route id="84" edges="-7947573#1"/>
    <route id="85" edges="-7947573#3"/>
    <route id="86" edges="-7947641"/>
    <route id="87" edges="-7947657#0"/>
    <route id="88" edges="-7947657#1"/>
    <route id="89" edges="-7947657#2"/>
    <route id="90" edges="-7947657#4"/>
    <route id="91" edges="-7947779#3"/>
    <route id="92" edges="-7947783"/>
    <route id="93" edges="-7947794#0"/>
    <route id="94" edges="-7947794#1"/>
    <route id="95" edges="-7947812"/>
    <route id="96" edges="-7947840"/>
    <route id="97" edges="-7947944"/>
    <route id="98" edges="-7947973"/>
    <route id="99" edges="-7948036"/>
    <route id="100" edges="-7948047#2"/>
    <route id="101" edges="-7948047#3"/>
    <route id="102" edges="-7948052"/>
    <route id="103" edges="-7948053#0"/>
    <route id="104" edges="-7948053#2"/>
    <route id="105" edges="-7948053#3"/>
    <route id="106" edges="-7948056#0"/>
    <route id="107" edges="-7948056#1"/>
    <route id="108" edges="-7948072#0"/>
    <route id="109" edges="-7948072#1"/>
    <route id="110" edges="-7948076#1"/>
    <route id="111" edges="-7948076#2"/>
    <route id="112" edges="-7948077#0"/>
    <route id="113" edges="-7948077#1"/>
    <route id="114" edges="-7948303"/>
    <route id="115" edges="-7948315#0"/>
    <route id="116" edges="-7948315#6"/>
    <route id="117" edges="-7948315#8"/>
    <route id="118" edges="-7948315#9"/>
    <route id="119" edges="-7948322#1"/>
    <route id="120" edges="-7948347#1"/>
    <route id="121" edges="-7948371"/>
    <route id="122" edges="-7948372"/>
    <route id="123" edges="-7948401"/>
    <route id="124" edges="-7948760"/>
    <route id="125" edges="-7948772#0"/>
    <route id="126" edges="-7948772#1"/>
    <route id="127" edges="-7948772#2"/>
    <route id="128" edges="-7948784#4"/>
    <route id="129" edges="-7948858#0"/>
    <route id="130" edges="-7948858#1"/>
    <route id="131" edges="-7948858#2"/>
    <route id="132" edges="-7948861"/>
    <route id="133" edges="-7948933"/>
    <route id="134" edges="-7949031#0"/>
    <route id="135" edges="-7949031#1"/>
    <route id="136" edges="-7949031#2"/>
    <route id="137" edges="-7949154#1"/>
    <route id="138" edges="-7949221"/>
    <route id="139" edges="-7949225"/>
    <route id="140" edges="-7949246#0"/>
    <route id="141" edges="-7949246#1"/>
    <route id="142" edges="-7949246#2"/>
    <route id="143" edges="-7949246#3"/>
    <route id="144" edges="-7949246#4"/>
    <route id="145" edges="-7949246#5"/>
    <route id="146" edges="-7949246#7"/>
    <route id="147" edges="-7949266#0"/>
    <route id="148" edges="-7949266#1"/>
    <route id="149" edges="-7949886#0"/>
    <route id="150" edges="-7949886#1"/>
    <route id="151" edges="-7950052"/>
    <route id="152" edges="-7950080#2"/>
    <route id="153" edges="-7950356#1"/>
    <route id="154" edges="-7950414#0"/>
    <route id="155" edges="-7950414#1"/>
    <route id="156" edges="-7950414#2"/>
    <route id="157" edges="-7950414#3"/>
    <route id="158" edges="-7950459"/>
    <route id="159" edges="-7950607"/>
    <route id="160" edges="-7950609#2"/>
    <route id="161" edges="-7950612#0"/>
    <route id="162" edges="-7950612#1"/>
    <route id="163" edges="-7950638#1"/>
    <route id="164" edges="-7950714#0"/>
    <route id="165" edges="-7950714#1"/>
    <route id="166" edges="-7950714#2"/>
    <route id="167" edges="-7950786#0"/>
    <route id="168" edges="-7950786#1"/>
    <route id="169" edges="-7950797#0"/>
    <route id="170" edges="-7950797#1"/>
    <route id="171" edges="-7950797#2"/>
    <route id="172" edges="-7951153#0"/>
    <route id="173" edges="-7951153#1"/>
    <route id="174" edges="-7951153#2"/>
    <route id="175" edges="-7951153#3"/>
    <route id="176" edges="-7951153#5"/>
    <route id="177" edges="-7951153#6"/>
    <route id="178" edges="-7951153#9"/>
    <route id="179" edges="-7951167"/>
    <route id="180" edges="-7951178#2"/>
    <route id="181" edges="-7951178#3"/>
    <route id="182" edges="-7951178#4"/>
    <route id="183" edges="-7951178#6"/>
    <route id="184" edges="-7951178#7"/>
    <route id="185" edges="-7951229#0"/>
    <route id="186" edges="-7951229#2"/>
    <route id="187" edges="-7951237#0"/>
    <route id="188" edges="-7951237#1"/>
    <route id="189" edges="-7951237#2"/>
    <route id="190" edges="-7951238"/>
    <route id="191" edges="-7951303"/>
    <route id="192" edges="-7951450#0"/>
    <route id="193" edges="-7951450#2"/>
    <route id="194" edges="-7951450#3"/>
    <route id="195" edges="-7951468#0"/>
    <route id="196" edges="-7951468#1"/>
    <route id="197" edges="-7951468#2"/>
    <route id="198" edges="-7951468#4"/>
    <route id="199" edges="-7951468#5"/>
    <route id="200" edges="-7951511"/>
    <route id="201" edges="-7951533"/>
    <route id="202" edges="-826346274#0"/>
    <route id="203" edges="-826346274#1"/>
    <route id="204" edges="-826346274#2"/>
    <route id="205" edges="-826346274#3"/>
    <route id="206" edges="-826346274#5"/>
    <route id="207" edges="-826346274#6"/>
    <route id="208" edges="-826346278#0"/>
    <route id="209" edges="-826346278#1"/>
    <route id="210" edges="-826346313#3"/>
    <route id="211" edges="-826346313#4"/>
    <route id="212" edges="-902519806"/>
    <route id="213" edges="-943379988"/>
    <route id="214" edges="-943379994#0"/>
    <route id="215" edges="-943379995"/>
    <route id="216" edges="-943379996#11"/>
    <route id="217" edges="-943379996#2"/>
    <route id="218" edges="-943379996#5"/>
    <route id="219" edges="-943379996#6"/>
    <route id="220" edges="-943379996#8"/>
    <route id="221" edges="-943379996#9"/>
    <route id="222" edges="1022968380"/>
    <route id="223" edges="1022968381#0"/>
    <route id="224" edges="1022968381#1"/>
    <route id="225" edges="107938636#0"/>
    <route id="226" edges="222835485#0"/>
    <route id="227" edges="222835485#1"/>
    <route id="228" edges="222835485#5"/>
    <route id="229" edges="764337089#0"/>
    <route id="230" edges="764337089#1"/>
    <route id="231" edges="764337089#13"/>
    <route id="232" edges="764337089#16"/>
    <route id="233" edges="764337089#4"/>
    <route id="234" edges="764337089#7"/>
    <route id="235" edges="764337089#8"/>
    <route id="236" edges="764337089#9"/>
    <route id="237" edges="7942627"/>
    <route id="238" edges="7943107"/>
    <route id="239" edges="7943815"/>
    <route id="240" edges="7944238"/>
    <route id="241" edges="7944741#0"/>
    <route id="242" edges="7944853"/>
    <route id="243" edges="7944945"/>
    <route id="244" edges="7944964"/>
    <route id="245" edges="7945099"/>
    <route id="246" edges="7945136"/>
    <route id="247" edges="7945143"/>
    <route id="248" edges="7945148"/>
    <route id="249" edges="7945153"/>
    <route id="250" edges="7945154"/>
    <route id="251" edges="7945159#0"/>
    <route id="252" edges="7945324#0"/>
    <route id="253" edges="7945324#1"/>
    <route id="254" edges="7945429"/>
    <route id="255" edges="7945901"/>
    <route id="256" edges="7946146#0"/>
    <route id="257" edges="7946146#1"/>
    <route id="258" edges="7946146#2"/>
    <route id="259" edges="7946205"/>
    <route id="260" edges="7946422#0"/>
    <route id="261" edges="7946422#1"/>
    <route id="262" edges="7946444#0"/>
    <route id="263" edges="7946444#1"/>
    <route id="264" edges="7946444#2"/>
    <route id="265" edges="7946715#0"/>
    <route id="266" edges="7946715#2"/>
    <route id="267" edges="7946723#0"/>
    <route id="268" edges="7946723#1"/>
    <route id="269" edges="7946794#0"/>
    <route id="270" edges="7946927#0"/>
    <route id="271" edges="7946927#1"/>
    <route id="272" edges="7946927#2"/>
    <route id="273" edges="7946927#3"/>
    <route id="274" edges="7946977#0"/>
    <route id="275" edges="7946977#1"/>
    <route id="276" edges="7946977#2"/>
    <route id="277" edges="7946977#4"/>
    <route id="278" edges="7946977#5"/>
    <route id="279" edges="7946983#0"/>
    <route id="280" edges="7946983#1"/>
    <route id="281" edges="7946983#2"/>
    <route id="282" edges="7946983#3"/>
    <route id="283" edges="7946983#4"/>
    <route id="284" edges="7946983#6"/>
    <route id="285" edges="7947052"/>
    <route id="286" edges="7947160"/>
    <route id="287" edges="7947238#0"/>
    <route id="288" edges="7947238#1"/>
    <route id="289" edges="7947238#10"/>
    <route id="290" edges="7947238#13"/>
    <route id="291" edges="7947238#14"/>
    <route id="292" edges="7947238#3"/>
    <route id="293" edges="7947238#4"/>
    <route id="294" edges="7947238#5"/>
    <route id="295" edges="7947238#7"/>
    <route id="296" edges="7947238#9"/>
    <route id="297" edges="7947245"/>
    <route id="298" edges="7947261"/>
    <route id="299" edges="7947292#0"/>
    <route id="300" edges="7947292#2"/>
    <route id="301" edges="7947481"/>
    <route id="302" edges="7947507"/>
    <route id="303" edges="7947514#0"/>
    <route id="304" edges="7947524#0"/>
    <route id="305" edges="7947524#1"/>
    <route id="306" edges="7947526#0"/>
    <route id="307" edges="7947526#1"/>
    <route id="308" edges="7947526#2"/>
    <route id="309" edges="7947526#3"/>
    <route id="310" edges="7947529"/>
    <route id="311" edges="7947568"/>
    <route id="312" edges="7947573#0"/>
    <route id="313" edges="7947573#1"/>
    <route id="314" edges="7947573#2"/>
    <route id="315" edges="7947641"/>
    <route id="316" edges="7947657#0"/>
    <route id="317" edges="7947657#1"/>
    <route id="318" edges="7947657#2"/>
    <route id="319" edges="7947657#3"/>
    <route id="320" edges="7947779#0"/>
    <route id="321" edges="7947783"/>
    <route id="322" edges="7947794#0"/>
    <route id="323" edges="7947794#1"/>
    <route id="324" edges="7947812"/>
    <route id="325" edges="7947840"/>
    <route id="326" edges="7947944"/>
    <route id="327" edges="7947973"/>
    <route id="328" edges="7948036"/>
    <route id="329" edges="7948047#0"/>
    <route id="330" edges="7948047#3"/>
    <route id="331" edges="7948052"/>
    <route id="332" edges="7948053#0"/>
    <route id="333" edges="7948053#1"/>
    <route id="334" edges="7948053#3"/>
    <route id="335" edges="7948056#0"/>
    <route id="336" edges="7948056#1"/>
    <route id="337" edges="7948072#0"/>
    <route id="338" edges="7948072#1"/>
    <route id="339" edges="7948076#0"/>
    <route id="340" edges="7948076#2"/>
    <route id="341" edges="7948077#0"/>
    <route id="342" edges="7948077#1"/>
    <route id="343" edges="7948303"/>
    <route id="344" edges="7948315#0"/>
    <route id="345" edges="7948315#1"/>
    <route id="346" edges="7948315#8"/>
    <route id="347" edges="7948315#9"/>
    <route id="348" edges="7948322#0"/>
    <route id="349" edges="7948347#0"/>
    <route id="350" edges="7948371"/>
    <route id="351" edges="7948372"/>
    <route id="352" edges="7948401"/>
    <route id="353" edges="7948760"/>
    <route id="354" edges="7948772#0"/>
    <route id="355" edges="7948772#1"/>
    <route id="356" edges="7948772#2"/>
    <route id="357" edges="7948784#0"/>
    <route id="358" edges="7948858#0"/>
    <route id="359" edges="7948858#1"/>
    <route id="360" edges="7948858#2"/>
    <route id="361" edges="7948861"/>
    <route id="362" edges="7948933"/>
    <route id="363" edges="7949031#0"/>
    <route id="364" edges="7949031#1"/>
    <route id="365" edges="7949031#2"/>
    <route id="366" edges="7949154#0"/>
    <route id="367" edges="7949221"/>
    <route id="368" edges="7949225"/>
    <route id="369" edges="7949246#0"/>
    <route id="370" edges="7949246#1"/>
    <route id="371" edges="7949246#2"/>
    <route id="372" edges="7949246#3"/>
    <route id="373" edges="7949246#4"/>
    <route id="374" edges="7949246#5"/>
    <route id="375" edges="7949246#6"/>
    <route id="376" edges="7949266#0"/>
    <route id="377" edges="7949266#1"/>
    <route id="378" edges="7949886#0"/>
    <route id="379" edges="7949886#1"/>
    <route id="380" edges="7950052"/>
    <route id="381" edges="7950080#0"/>
    <route id="382" edges="7950356#0"/>
    <route id="383" edges="7950414#0"/>
    <route id="384" edges="7950414#1"/>
    <route id="385" edges="7950414#2"/>
    <route id="386" edges="7950414#3"/>
    <route id="387" edges="7950459"/>
    <route id="388" edges="7950607"/>
    <route id="389" edges="7950609#0"/>
    <route id="390" edges="7950612#0"/>
    <route id="391" edges="7950612#1"/>
    <route id="392" edges="7950638#0"/>
    <route id="393" edges="7950714#0"/>
    <route id="394" edges="7950714#1"/>
    <route id="395" edges="7950714#2"/>
    <route id="396" edges="7950786#0"/>
    <route id="397" edges="7950786#1"/>
    <route id="398" edges="7950797#0"/>
    <route id="399" edges="7950797#1"/>
    <route id="400" edges="7950797#2"/>
    <route id="401" edges="7951153#0"/>
    <route id="402" edges="7951153#1"/>
    <route id="403" edges="7951153#2"/>
    <route id="404" edges="7951153#3"/>
    <route id="405" edges="7951153#4"/>
    <route id="406" edges="7951153#6"/>
    <route id="407" edges="7951153#7"/>
    <route id="408" edges="7951167"/>
    <route id="409" edges="7951178#0"/>
    <route id="410" edges="7951178#3"/>
    <route id="411" edges="7951178#4"/>
    <route id="412" edges="7951178#5"/>
    <route id="413" edges="7951178#7"/>
    <route id="414" edges="7951229#0"/>
    <route id="415" edges="7951229#1"/>
    <route id="416" edges="7951237#0"/>
    <route id="417" edges="7951237#1"/>
    <route id="418" edges="7951237#2"/>
    <route id="419" edges="7951238"/>
    <route id="420" edges="7951303"/>
    <route id="421" edges="7951450#0"/>
    <route id="422" edges="7951450#2"/>
    <route id="423" edges="7951450#3"/>
    <route id="424" edges="7951450#4"/>
    <route id="425" edges="7951468#0"/>
    <route id="426" edges="7951468#1"/>
    <route id="427" edges="7951468#2"/>
    <route id="428" edges="7951468#3"/>
    <route id="429" edges="7951468#5"/>
    <route id="430" edges="7951511"/>
    <route id="431" edges="7951533"/>
    <route id="432" edges="826346274#1"/>
    <route id="433" edges="826346274#2"/>
    <route id="434" edges="826346274#3"/>
    <route id="435" edges="826346274#4"/>
    <route id="436" edges="826346274#6"/>
    <route id="437" edges="826346278#1"/>
    <route id="438" edges="826346313#4"/>
    <route id="439" edges="826346313#5"/>
    <route id="440" edges="902519806"/>
    <route id="441" edges="943379994#0"/>
    <route id="442" edges="943379994#1"/>
    <route id="443" edges="943379995"/>
    <route id="444" edges="943379996#0"/>
    <route id="445" edges="943379996#10"/>
    <route id="446" edges="943379996#4"/>
    <route id="447" edges="943379996#6"/>
    <route id="448" edges="943379996#7"/>
    <route id="449" edges="943379996#9"/>
</routes>
