<?xml version="1.0" encoding="UTF-8"?>

<!-- generated on 2025-04-23 22:19:11.180071 by randomTrips.py v1_22_0+0002-63e50f52594
<configuration>
    <net-file value="osm.net.xml.gz"/>
    <output-trip-file value="osm.passenger.trips.xml"/>
    <route-file value="osm.passenger.rou.xml"/>
    <prefix value="veh"/>
    <trip-attributes value="departLane=&quot;best&quot;"/>
    <fringe-start-attributes value="departSpeed=&quot;max&quot;"/>
    <vehicle-class value="passenger"/>
    <lanes value="True"/>
    <fringe-factor value="5"/>
    <allow-fringe.min-length value="1000.0"/>
    <via-edge-types value="highway.motorway,highway.motorway_link,highway.trunk_link,highway.primary_link,highway.secondary_link,highway.tertiary_link"/>
    <min-distance value="300.0"/>
    <min-distance.fringe value="10.0"/>
    <remove-loops value="True"/>
    <validate value="True"/>
    <insertion-density value="12.0"/>
</configuration>
-->

<!-- generated on 2025-04-23 22:19:11 by Eclipse SUMO duarouter Version 1.22.0
<duarouterConfiguration xmlns:xsi="http://www.w3.org/2001/XMLSchema-instance" xsi:noNamespaceSchemaLocation="http://sumo.dlr.de/xsd/duarouterConfiguration.xsd">

    <input>
        <net-file value="osm.net.xml.gz"/>
        <route-files value="osm.passenger.trips.xml"/>
    </input>

    <output>
        <output-file value="osm.passenger.rou.xml"/>
        <alternatives-output value="NUL"/>
    </output>

    <processing>
        <remove-loops value="true"/>
    </processing>

    <time>
        <begin value="0.0"/>
        <end value="3600.0"/>
    </time>

    <report>
        <no-warnings value="true"/>
        <ignore-errors value="true"/>
        <no-step-log value="true"/>
    </report>

</duarouterConfiguration>
-->

<routes xmlns:xsi="http://www.w3.org/2001/XMLSchema-instance" xsi:noNamespaceSchemaLocation="http://sumo.dlr.de/xsd/routes_file.xsd">
    <vType id="veh_passenger" vClass="passenger"/>
    <vehicle id="veh0" type="veh_passenger" depart="0.00" departLane="best" departSpeed="max">
        <route edges="7944945 943379996#4 943379996#6 943379996#7 943379996#9 943379996#10 764337089#0 764337089#1 764337089#4 764337089#7 764337089#8 764337089#9 764337089#13"/>
    </vehicle>
    <vehicle id="veh1" type="veh_passenger" depart="4.03" departLane="best" departSpeed="max">
        <route edges="-7948303 7946715#2 7945099 -7951468#1 -7951468#0 -7951153#9 -7951153#6 -7951153#5 7948053#0"/>
    </vehicle>
    <vehicle id="veh2" type="veh_passenger" depart="8.06" departLane="best" departSpeed="max">
        <route edges="7947245 7946927#2 7946927#3 -764337089#0 -943379996#11 -943379996#9 -943379996#8 -943379996#6 -943379996#5 -943379996#2 -943379988 -943379994#0 7948047#0 7948047#3"/>
    </vehicle>
    <vehicle id="veh3" type="veh_passenger" depart="12.09" departLane="best">
        <route edges="7950612#0 7950612#1 7946927#3 -7947238#5 -7947238#4 -7947238#3 -7947238#2 -7947238#0 7949246#0 7949246#1 -7949031#1 -7946146#0"/>
    </vehicle>
    <vehicle id="veh4" type="veh_passenger" depart="16.12" departLane="best" departSpeed="max">
        <route edges="-7950638#1 -7949246#7 -7949246#5 -7949246#4 7951153#1 7951153#2 7951153#3 7951153#4 7951153#6 7951153#7 7945901 -764337089#7 -764337089#6 -764337089#3"/>
    </vehicle>
    <vehicle id="veh5" type="veh_passenger" depart="20.15" departLane="best" departSpeed="max">
        <route edges="-7947944 7947238#5 -764337089#0 -943379996#11 -943379996#9 -943379996#8 -943379996#6 -943379996#5 -943379996#2 -943379988 7945148 -7946444#1 -7946444#0"/>
    </vehicle>
    <vehicle id="veh6" type="veh_passenger" depart="24.17" departLane="best">
        <route edges="-764337089#8 -7945901 -7951153#9 -7951153#6 -7951153#5 7948053#0 7948053#1 7947657#2"/>
    </vehicle>
    <vehicle id="veh7" type="veh_passenger" depart="28.20" departLane="best">
        <route edges="7945153 -7949246#0 -7950797#2 -7950797#1 -7950797#0 -943379996#9 -943379996#8 -943379996#6 -943379996#5 -943379996#2 -943379988 7945148 -7946444#1 7947160"/>
    </vehicle>
    <vehicle id="veh8" type="veh_passenger" depart="32.23" departLane="best" departSpeed="max">
        <route edges="-7947944 7947238#5 764337089#1 764337089#4 764337089#7 -7945901 7951468#0 7951468#1 7951468#2 7947507 7947514#0"/>
    </vehicle>
    <vehicle id="veh9" type="veh_passenger" depart="36.26" departLane="best">
        <route edges="7948076#2 -7947573#1 -7947573#0 -7951153#6 -7951153#5 -7951153#3 -7951153#2 -7951153#1 -7951153#0 107938636#0"/>
    </vehicle>
    <vehicle id="veh10" type="veh_passenger" depart="40.29" departLane="best" departSpeed="max">
        <route edges="-7948861 826346313#5 826346274#1 826346274#2 826346274#3 826346274#4 826346274#6 7945153 -7949246#0 7947238#0 7947238#1 7947238#3 7947238#4"/>
    </vehicle>
    <vehicle id="veh11" type="veh_passenger" depart="44.32" departLane="best">
        <route edges="7951450#2 7951450#3 7951450#4 826346278#1 7950797#0 7950797#1 7950797#2 7947238#0 7946983#0 7946983#1 7946983#2 7946983#3 -7951153#1"/>
    </vehicle>
    <vehicle id="veh12" type="veh_passenger" depart="48.35" departLane="best">
        <route edges="-7946927#2 -7946927#1 -7951178#4 -7951178#3 -7951178#2 826346278#1 -943379996#9 -943379996#8 -943379996#6 -943379996#5 -943379996#2 -943379988 7945148 -7946444#1"/>
    </vehicle>
    <vehicle id="veh13" type="veh_passenger" depart="52.38" departLane="best">
        <route edges="7949225 -7951468#4 7947507 7947568"/>
    </vehicle>
    <vehicle id="veh14" type="veh_passenger" depart="56.41" departLane="best">
        <route edges="-7948072#0 -7948047#2 943379994#0 943379994#1 943379996#0 943379996#4 943379996#6 943379996#7 943379996#9 943379996#10 764337089#0 7947238#7 7947238#9 7947238#10 7947238#13 7947238#14 7950459 7948347#0"/>
    </vehicle>
    <vehicle id="veh15" type="veh_passenger" depart="60.44" departLane="best">
        <route edges="-826346313#4 902519806"/>
    </vehicle>
    <vehicle id="veh16" type="veh_passenger" depart="64.47" departLane="best">
        <route edges="-7949246#3 -7949246#2 -7949246#1 -7949246#0 7947238#0 7947238#1 7947238#3 7947238#4 7947238#5 7947238#7 7947238#9 7947238#10 7947238#13"/>
    </vehicle>
    <vehicle id="veh17" type="veh_passenger" depart="68.49" departLane="best">
        <route edges="7948772#1 7948772#2 -7951178#3 -7951178#2 826346278#1 7950797#0 7950797#1 7950797#2 7949246#0 7949246#1 7949246#2 7950414#2 7950414#3 7947657#0"/>
    </vehicle>
    <vehicle id="veh18" type="veh_passenger" depart="72.52" departLane="best">
        <route edges="7949266#0 -7946983#6 -7946983#4 -7951153#1 -7951153#0 7950714#0 7950714#1 7950714#2 1022968380 1022968381#0 1022968381#1 7947292#0 7947292#2"/>
    </vehicle>
    <vehicle id="veh19" type="veh_passenger" depart="76.55" departLane="best">
        <route edges="7946983#1 -7949031#2 -7949246#1 -7945153 -826346274#6 -826346274#5 -826346274#3 -7943107"/>
    </vehicle>
    <vehicle id="veh20" type="veh_passenger" depart="80.58" departLane="best" departSpeed="max">
        <route edges="-7948036 -7945324#0 -7947514#0 -7947507 -7951468#2 -7951468#1 -7951468#0 7945901 -764337089#7 -764337089#6 -764337089#3 -7946927#3 -7950612#1 -7947052 -7949886#0"/>
    </vehicle>
    <vehicle id="veh21" type="veh_passenger" depart="84.61" departLane="best">
        <route edges="7946444#1 7946444#2 943379994#0 943379994#1 943379996#0 943379996#4 943379996#6 943379996#7 943379996#9 943379996#10 764337089#0 764337089#1 764337089#4 764337089#7 -7945901 7951468#0 7950356#0 7947573#1 -7948076#2 -7948076#1"/>
    </vehicle>
    <vehicle id="veh22" type="veh_passenger" depart="88.64" departLane="best">
        <route edges="7946977#4 7946977#5 -1022968380 -7950714#2 -7950714#1 -7950714#0 7951153#0 -7949246#3 -7949246#2"/>
    </vehicle>
    <vehicle id="veh23" type="veh_passenger" depart="92.67" departLane="best">
        <route edges="7944853 764337089#7 -7945901 -7951153#9 -7951153#6 -7951153#5 -7951153#3 -7951153#2 -7951153#1 -7951153#0 7950714#0 7950714#1 7950714#2 1022968380 -7946977#5 -7946977#4 -7946977#3 -7946977#1 -7951237#2 -7951237#1 -7951237#0"/>
    </vehicle>
    <vehicle id="veh24" type="veh_passenger" depart="96.70" departLane="best">
        <route edges="-7949225 -7948372 -764337089#15 7945099 -7951468#1 -7951468#0 -7951153#9 -7951153#6 -7951153#5 -7951153#3 -7951153#2 -7951153#1 -7951153#0 7950714#0 7950714#1 -7946422#0 -826346274#3 -826346274#2 -826346274#1 -826346274#0 -826346313#4 -826346313#3 -7947973"/>
    </vehicle>
    <vehicle id="veh25" type="veh_passenger" depart="100.73" departLane="best" departSpeed="max">
        <route edges="-7948072#1 -7948072#0 -7948047#2 943379994#0 943379994#1 943379996#0 943379996#4 943379996#6 943379996#7 943379996#9 943379996#10 764337089#0 764337089#1 764337089#4 764337089#7 -7945901 7951468#0 7951468#1 7951468#2 7951468#3 7951468#5"/>
    </vehicle>
    <vehicle id="veh26" type="veh_passenger" depart="104.76" departLane="best">
        <route edges="-7945136 7946983#1 7946983#2 7946983#3 7951153#2 7951153#3 7951153#4 7951153#6 7951153#7 7951468#0 7951468#1 7951468#2 7947507 7947568"/>
    </vehicle>
    <vehicle id="veh27" type="veh_passenger" depart="108.79" departLane="best" departSpeed="max">
        <route edges="-7947568 -7947507 -7951468#2 -7945099 -7946715#3 -7946715#1 -458788170 7947238#14 7950459 7948347#0"/>
    </vehicle>
    <vehicle id="veh28" type="veh_passenger" depart="112.81" departLane="best">
        <route edges="7947526#0 7947526#1 7947526#2 7947526#3 -7950714#2 -7950714#1 -7950714#0 7951153#0 -7949246#3 -7949246#2 -7949246#1 -7949246#0 -7950797#2 -7950797#1 -7950797#0 -826346278#1 -826346278#0 -7951450#3 -7951450#2 -7951450#0"/>
    </vehicle>
    <vehicle id="veh29" type="veh_passenger" depart="116.84" departLane="best">
        <route edges="943379996#0 7948784#0 7947794#0 7947794#1"/>
    </vehicle>
    <vehicle id="veh30" type="veh_passenger" depart="120.87" departLane="best" departSpeed="max">
        <route edges="-943379995 -764337089#16 -764337089#15 7945099 -7951468#1 -7951468#0 -7951153#9 -7951153#6 -7951153#5 7948053#0 7948053#1 7948053#3"/>
    </vehicle>
    <vehicle id="veh31" type="veh_passenger" depart="124.90" departLane="best">
        <route edges="7949031#0 -7946146#0 -826346274#6 -826346274#5 -826346274#3 -826346274#2 -826346274#1 -826346274#0 7948861"/>
    </vehicle>
    <vehicle id="veh32" type="veh_passenger" depart="128.93" departLane="best" departSpeed="max">
        <route edges="-7948036 -7945324#0 -7947514#0 -7947507 -7951468#2 -7951468#1 -7951468#0 7945901 -764337089#7 -764337089#6"/>
    </vehicle>
    <vehicle id="veh33" type="veh_passenger" depart="132.96" departLane="best" departSpeed="max">
        <route edges="-7948401 7946444#0 7946444#1 7946444#2 943379994#0 943379994#1 943379996#0 943379996#4 7945159#0 7948315#1 7948315#8 7948315#9 7946146#0 -7949031#0"/>
    </vehicle>
    <vehicle id="veh34" type="veh_passenger" depart="136.99" departLane="best" departSpeed="max">
        <route edges="-7947794#1 7950609#0 7950607 -7950797#0 -826346278#1 7951178#0 7951178#3 7951178#4 7951178#5 7951511"/>
    </vehicle>
    <vehicle id="veh35" type="veh_passenger" depart="141.02" departLane="best">
        <route edges="-7950080#2 -764337089#3 -7947238#5 -7947238#4 -7947238#3 -7947238#2 -7947238#0 -7950797#2 -7950797#1 -7950607 -7950609#2"/>
    </vehicle>
    <vehicle id="veh36" type="veh_passenger" depart="145.05" departLane="best">
        <route edges="7946146#0 -7949031#0 -7948858#0 -826346274#5 -826346274#3 -826346274#2 -826346274#1 -826346274#0"/>
    </vehicle>
    <vehicle id="veh37" type="veh_passenger" depart="149.08" departLane="best">
        <route edges="7951153#3 7951153#4 7951153#6 7951153#7 7951468#0 7951468#1 7951468#2 7947507 7947514#0 7944964"/>
    </vehicle>
    <vehicle id="veh38" type="veh_passenger" depart="153.11" departLane="best" departSpeed="max">
        <route edges="-7948072#1 -7948072#0 -7948047#2 943379994#0 943379994#1 943379996#0 943379996#4 943379996#6 943379996#7 943379996#9 -826346278#1 -826346278#0 -7951450#3 7944238 -7948322#1"/>
    </vehicle>
    <vehicle id="veh39" type="veh_passenger" depart="157.13" departLane="best">
        <route edges="943379996#0 943379996#4 7945159#0 7948315#1 7948315#8 7948315#9 7946146#0 7946146#1 7946146#2 7950714#0 -7948858#2"/>
    </vehicle>
    <vehicle id="veh40" type="veh_passenger" depart="161.16" departLane="best" departSpeed="max">
        <route edges="222835485#0 222835485#1 222835485#5 943379994#0 943379994#1 943379996#0 943379996#4 943379996#6 943379996#7 943379996#9 -826346278#1 7951178#0 7951178#3"/>
    </vehicle>
    <vehicle id="veh41" type="veh_passenger" depart="165.19" departLane="best">
        <route edges="-7950080#2 -764337089#3 -764337089#0 -943379996#11 -943379996#9 -943379996#8 -943379996#6 -943379996#5 -943379996#2 -943379988 -943379994#0 7948047#0"/>
    </vehicle>
    <vehicle id="veh42" type="veh_passenger" depart="169.22" departLane="best">
        <route edges="943379996#7 943379996#9 943379996#10 764337089#0 7947238#7 7947238#9 7947238#10 7947238#13 7944741#0 7946715#0"/>
    </vehicle>
    <vehicle id="veh43" type="veh_passenger" depart="173.25" departLane="best">
        <route edges="-7946927#1 -7951178#4 -7951178#3 -7951178#2 826346278#1 7950797#0 7950797#1 -7948933 7948315#9 -826346274#6 -826346274#5 -826346274#3 -7943107"/>
    </vehicle>
    <vehicle id="veh44" type="veh_passenger" depart="177.28" departLane="best">
        <route edges="-7946983#3 7950414#3 7947657#0 7947657#1 7947657#2 7947657#3"/>
    </vehicle>
    <vehicle id="veh45" type="veh_passenger" depart="181.31" departLane="best" departSpeed="max">
        <route edges="7947973 7946794#0 826346313#4 826346313#5 826346274#1 826346274#2 826346274#3 826346274#4 826346274#6 -7948315#9 -7948315#8 -7948315#6 -7948315#0 -943379996#6"/>
    </vehicle>
    <vehicle id="veh46" type="veh_passenger" depart="185.34" departLane="best">
        <route edges="-7946146#2 7950414#1 -7949246#2 -7949246#1 -7949246#0 -7950797#2 -7950797#1 -7950797#0 -826346278#1 -826346278#0 -7951450#3 -7951450#2 -7951450#0"/>
    </vehicle>
    <vehicle id="veh47" type="veh_passenger" depart="189.37" departLane="best">
        <route edges="943379996#6 7948315#0 7948315#1 7948315#8 7948315#9 7946146#0 7946146#1 7946146#2 7950714#0 7950714#1 7950714#2 1022968380 -7946977#5 -7946977#4"/>
    </vehicle>
    <vehicle id="veh48" type="veh_passenger" depart="193.40" departLane="best">
        <route edges="7951533 -7949246#7 -7949246#5 -7949246#4 -7951153#0 7950714#0 7950714#1"/>
    </vehicle>
    <vehicle id="veh49" type="veh_passenger" depart="197.43" departLane="best">
        <route edges="-458788170 -7947238#13 -7947238#12 -7947238#9 -7947238#8 -7947238#5 -7947238#4 -7947238#3 -7947238#2 -7947238#0 -7950797#2 -7950797#1 -7950607 7948315#8"/>
    </vehicle>
    <vehicle id="veh50" type="veh_passenger" depart="201.45" departLane="best" departSpeed="max">
        <route edges="7946723#0 7946723#1 -7947238#13 -7947238#12 -7947238#9 -7947238#8 -7947238#5 -7947238#4 -7947238#3 -7947238#2 7946983#0 7946983#1 7946983#2"/>
    </vehicle>
    <vehicle id="veh51" type="veh_passenger" depart="205.48" departLane="best" departSpeed="max">
        <route edges="-7948072#1 -7948072#0 -7948047#2 943379994#0 943379994#1 943379996#0 7948784#0 7947794#0 7947794#1"/>
    </vehicle>
    <vehicle id="veh52" type="veh_passenger" depart="209.51" departLane="best">
        <route edges="-7946983#4 -7951153#1 -7949246#3 -7949246#2 -7949246#1 -7949246#0 -7950797#2 -7950797#1 -7950797#0 -943379996#9 -943379996#8 -943379996#6 -943379996#5 -943379996#2 -943379988 -943379994#0 -222835485#5 -222835485#4"/>
    </vehicle>
    <vehicle id="veh53" type="veh_passenger" depart="213.54" departLane="best" departSpeed="max">
        <route edges="-7951167 7948077#0 7948077#1 -764337089#8 -7945901 -7951153#9 -7951153#6 -7951153#5 -7951153#3 -7951153#2 -7951153#1 -7951153#0 7950714#0 7950714#1 -7946422#0 -826346274#3 -826346274#2 7945429"/>
    </vehicle>
    <vehicle id="veh54" type="veh_passenger" depart="217.57" departLane="best">
        <route edges="-7950080#2 764337089#4 764337089#7 -7945901 -7951153#9 -7951153#6 -7951153#5 -7951153#3 -7951153#2 -7951153#1 -7951153#0 7950714#0 -7948858#2"/>
    </vehicle>
    <vehicle id="veh55" type="veh_passenger" depart="221.60" departLane="best" departSpeed="max">
        <route edges="-7951468#5 -7951468#4 -7951468#2 -7951468#1 -7951468#0 -7951153#9 -7951153#6 -7951153#5 -7951153#3 -7951153#2 -7951153#1 -7951153#0 7950714#0 7950714#1 7950714#2 -7947526#3 -7947526#2 -7947526#1 -7947526#0"/>
    </vehicle>
    <vehicle id="veh56" type="veh_passenger" depart="225.63" departLane="best">
        <route edges="7951153#2 -7947657#0 -7950414#3 -7950414#2 -7949246#2 -7949246#1 -7949246#0 -7950797#2 -7950797#1"/>
    </vehicle>
    <vehicle id="veh57" type="veh_passenger" depart="229.66" departLane="best" departSpeed="max">
        <route edges="-7948347#1 -7950459 -7947238#14 -7947238#13 -7947238#12 -7947238#9 -7947238#8 -7947238#5 -7947238#4 -7947238#3 -7947238#2 -7947238#0 -7950797#2 -7950797#1 -7950607 -7950609#2 7947794#1"/>
    </vehicle>
    <vehicle id="veh58" type="veh_passenger" depart="233.69" departLane="best" departSpeed="max">
        <route edges="7942627 -107938636#1 7951153#0 7951153#1 -7946983#3 -7946983#2 -7946983#1 7945136 -7947641 -7947238#2"/>
    </vehicle>
    <vehicle id="veh59" type="veh_passenger" depart="237.72" departLane="best">
        <route edges="-7951153#9 -7951153#6 -7951153#5 -7951153#3 -7951153#2 7946983#4"/>
    </vehicle>
    <vehicle id="veh60" type="veh_passenger" depart="241.75" departLane="best">
        <route edges="7947794#0 7950609#0 7948315#8 7948315#9 7946146#0 7946146#1 7946146#2 7950714#0 7950714#1 7950714#2 1022968380 -7946977#5 -7946977#4"/>
    </vehicle>
    <vehicle id="veh61" type="veh_passenger" depart="245.77" departLane="best">
        <route edges="-1022968380 -7950714#2"/>
    </vehicle>
    <vehicle id="veh62" type="veh_passenger" depart="249.80" departLane="best">
        <route edges="-764337089#16 -764337089#15 -764337089#12 -764337089#8 -7945901 7951468#0 7951468#1"/>
    </vehicle>
    <vehicle id="veh63" type="veh_passenger" depart="253.83" departLane="best">
        <route edges="7950414#0 7950414#1 -7949246#2 -7949246#1 -7949246#0 7947238#0 7947238#1 7947238#3 7947238#4 7947238#5 764337089#1 7950080#0"/>
    </vehicle>
    <vehicle id="veh64" type="veh_passenger" depart="257.86" departLane="best" departSpeed="max">
        <route edges="-7948371 -7948372 -764337089#15 -764337089#12 -764337089#8 -764337089#7 -764337089#6 -764337089#3 -764337089#0 -943379996#11 -943379996#9 -943379996#8 -943379996#6 -943379996#5 -943379996#2 -943379988 -943379994#0 -222835485#5 -222835485#4 -7943815"/>
    </vehicle>
    <vehicle id="veh65" type="veh_passenger" depart="261.89" departLane="best">
        <route edges="-7950356#1 -7951468#0 7945901 -764337089#7 -764337089#6 -764337089#3 -7946927#3 -7946927#2 -7946927#1 7951178#5 7951511"/>
    </vehicle>
    <vehicle id="veh66" type="veh_passenger" depart="265.92" departLane="best">
        <route edges="7946715#2 7945099 -7951468#1 -7951468#0 -7951153#9 -7951153#6 -7951153#5 -7951153#3 -7951153#2 -7951153#1 -7949246#3 -7949246#2 -7949246#1 -7945153 7946146#0"/>
    </vehicle>
    <vehicle id="veh67" type="veh_passenger" depart="269.95" departLane="best" departSpeed="max">
        <route edges="-7946422#1 -7950714#1 -7950714#0 7951153#0 -7949246#3 -7949246#2 -7949246#1 -7949246#0 -7950797#2 -7950797#1 -7950797#0 -826346278#1 7951178#0 7948056#0 7948760 7948772#2"/>
    </vehicle>
    <vehicle id="veh68" type="veh_passenger" depart="273.98" departLane="best">
        <route edges="-7947573#1 -7947573#0 -7951153#6 -7951153#5 -7951153#3 -7951153#2 -7951153#1 -7951153#0 7950714#0 7950714#1 7950714#2 1022968380 -7946977#5 -7946977#4"/>
    </vehicle>
    <vehicle id="veh69" type="veh_passenger" depart="278.01" departLane="best" departSpeed="max">
        <route edges="-7951229#2 -7950080#2 -764337089#3 -7947238#5 -7947238#4 -7947238#3 -7947238#2"/>
    </vehicle>
    <vehicle id="veh70" type="veh_passenger" depart="282.04" departLane="best" departSpeed="max">
        <route edges="-7948072#1 -7948072#0 -7948047#2 943379994#0 943379994#1 943379996#0 943379996#4 943379996#6 943379996#7 943379996#9 7950797#0 7950797#1 7950797#2"/>
    </vehicle>
    <vehicle id="veh71" type="veh_passenger" depart="286.07" departLane="best" departSpeed="max">
        <route edges="-7950638#1 -7951533 -7947292#1 -1022968381#2 -1022968381#0 -7946977#5 -7946977#4 -7946977#3 -7951238 -826346274#0 -826346313#4 -826346313#3 -7947973"/>
    </vehicle>
    <vehicle id="veh72" type="veh_passenger" depart="290.09" departLane="best" departSpeed="max">
        <route edges="-902519806 826346313#4 826346313#5 826346274#1 826346274#2 826346274#3 826346274#4 826346274#6 7945153 -7949246#0 7947238#0 7947238#1 7947238#3 7947238#4 7947238#5 7947238#7 7947238#9 7947238#10 7947238#13 7947238#14 7950459 7948347#0"/>
    </vehicle>
    <vehicle id="veh73" type="veh_passenger" depart="294.12" departLane="best">
        <route edges="-7947779#3 7948076#0 7948076#2 -7947573#1 -7950356#1 -7951468#0 7945901 -764337089#7 -764337089#6 -764337089#3 7947238#7 7947238#9 7947238#10 7947238#13 7947238#14 7950459"/>
    </vehicle>
    <vehicle id="veh74" type="veh_passenger" depart="298.15" departLane="best">
        <route edges="943379996#6 943379996#7 943379996#9 943379996#10 764337089#0 7947238#7 7947238#9 7947840"/>
    </vehicle>
    <vehicle id="veh75" type="veh_passenger" depart="302.18" departLane="best">
        <route edges="-7950797#1 -7950797#0 -826346278#1 -826346278#0 -7951450#3 -7951450#2 7948772#0 7946927#0"/>
    </vehicle>
    <vehicle id="veh76" type="veh_passenger" depart="306.21" departLane="best">
        <route edges="-7947238#12 -7947238#9 -7947238#8 -7947238#5 -7947238#4 -7947238#3 -7947238#2 7946983#0 7946983#1 7946983#2 7946983#3 7951153#2 7947657#1 -7948053#2"/>
    </vehicle>
    <vehicle id="veh77" type="veh_passenger" depart="310.24" departLane="best" departSpeed="max">
        <route edges="-7948861 826346313#5 826346274#1 826346274#2 826346274#3 7946422#0 -7950714#1 -7950714#0 7951153#0 7951153#1 7951153#2 7951153#3 7951153#4 7951153#6 7951153#7 7951468#0 7951468#1 7951468#2 7947507 7947514#0"/>
    </vehicle>
    <vehicle id="veh78" type="veh_passenger" depart="314.27" departLane="best" departSpeed="max">
        <route edges="-7948036 -7945324#0 -7947514#0 -7947507 -7951468#2 -7951468#1 -7951468#0 -7951153#9 -7951153#6 -7951153#5 -7951153#3 -7951153#2 7946983#4 -7948052"/>
    </vehicle>
    <vehicle id="veh79" type="veh_passenger" depart="318.30" departLane="best" departSpeed="max">
        <route edges="-7946422#1 -7950714#1 -7950714#0 7951153#0 7951153#1 7951153#2 7947657#1 7947657#2 7947657#3"/>
    </vehicle>
    <vehicle id="veh80" type="veh_passenger" depart="322.33" departLane="best" departSpeed="max">
        <route edges="-7948036 -7945324#0 -7947514#0 -7947507 -7951468#2 -7951468#1 -7951468#0 7945901 -764337089#7 -764337089#6 7950080#0 7951229#1"/>
    </vehicle>
    <vehicle id="veh81" type="veh_passenger" depart="326.36" departLane="best">
        <route edges="-7949246#7 -7949246#5 -7949246#4 -7949246#3 -7949246#2 -7949246#1 -7949246#0 -7950797#2 -7950797#1 -7950797#0 -943379996#9 -943379996#8 -943379996#6 -943379996#5 -7944945"/>
    </vehicle>
    <vehicle id="veh82" type="veh_passenger" depart="330.39" departLane="best" departSpeed="max">
        <route edges="-7947794#1 7950609#0 7950607 7950797#1 7950797#2 7949246#0 7949246#1 7949031#2 -7946983#1"/>
    </vehicle>
    <vehicle id="veh83" type="veh_passenger" depart="334.41" departLane="best" departSpeed="max">
        <route edges="7951237#0 7951237#1 7951237#2 7946977#1 7946977#2 7946977#4 7946977#5 1022968381#0 7947261"/>
    </vehicle>
    <vehicle id="veh84" type="veh_passenger" depart="338.44" departLane="best">
        <route edges="-7951229#0 -7947238#8 -764337089#0 -943379996#11 -943379996#9 -943379996#8 -943379996#6 -943379996#5 -943379996#2 -943379988 -943379994#0 7948047#0 7948072#0 7949154#0"/>
    </vehicle>
    <vehicle id="veh85" type="veh_passenger" depart="342.47" departLane="best">
        <route edges="7946977#1 7946977#2 7946977#4 7946977#5 1022968381#0 1022968381#1"/>
    </vehicle>
    <vehicle id="veh86" type="veh_passenger" depart="346.50" departLane="best" departSpeed="max">
        <route edges="-7950638#1 -7949246#7 -7949246#5 -7949246#4 7951153#1 7951153#2 7951153#3 7951153#4 7951153#6 7951153#7 7945901 764337089#8 764337089#9 7945099"/>
    </vehicle>
    <vehicle id="veh87" type="veh_passenger" depart="350.53" departLane="best">
        <route edges="7947238#5 -764337089#0 -943379996#11 -943379996#9 -943379996#8 -943379996#6 -943379996#5 -943379996#2 -943379988 -943379994#0 7948047#0 7948047#3"/>
    </vehicle>
    <vehicle id="veh88" type="veh_passenger" depart="354.56" departLane="best">
        <route edges="826346313#5 826346274#1 826346274#2 826346274#3 826346274#4 826346274#6 -7948315#9 -7948315#8 -7948315#6 -7948315#0 -943379996#6 -943379996#5 -943379996#2 -943379988 -943379994#0 -7946444#2"/>
    </vehicle>
    <vehicle id="veh89" type="veh_passenger" depart="358.59" departLane="best">
        <route edges="-7950414#0 7948858#2 -7950714#0 7951153#0 7951153#1 7951153#2 7951153#3"/>
    </vehicle>
    <vehicle id="veh90" type="veh_passenger" depart="362.62" departLane="best">
        <route edges="7949266#0 7949266#1 -7947657#2 -7948053#2 -7948053#0 7951153#4 7951153#6 7951153#7 7951468#0 7951468#1 7951468#2 7951468#3 -7949225 -7948372"/>
    </vehicle>
    <vehicle id="veh91" type="veh_passenger" depart="366.65" departLane="best">
        <route edges="-7947657#2 -7948053#2 -7948053#0 7951153#4 7951153#6 7951153#7 7945901 764337089#8"/>
    </vehicle>
    <vehicle id="veh92" type="veh_passenger" depart="370.68" departLane="best" departSpeed="max">
        <route edges="-7950638#1 -7949246#7 -7949246#5 -7949246#4 -7949246#3 -7949246#2"/>
    </vehicle>
    <vehicle id="veh93" type="veh_passenger" depart="374.71" departLane="best">
        <route edges="-7948053#0 -7951153#3 -7951153#2 -7951153#1 -7949246#3 -7949246#2 -7949246#1 -7949246#0 -7950797#2 -7950797#1 -7950797#0 -826346278#1 -826346278#0 -7951450#3"/>
    </vehicle>
    <vehicle id="veh94" type="veh_passenger" depart="378.73" departLane="best">
        <route edges="-7951153#1 -7951153#0 7950714#0 7950714#1"/>
    </vehicle>
    <vehicle id="veh95" type="veh_passenger" depart="382.76" departLane="best" departSpeed="max">
        <route edges="-943379995 -764337089#16 -764337089#15 7945099 -7951468#1 -7951468#0 -7951153#9 -7951153#6 -7951153#5 -7951153#3 -7951153#2 -7951153#1 -7951153#0 7950714#0 7950714#1 -7946422#0 -826346274#3 -7943107"/>
    </vehicle>
    <vehicle id="veh96" type="veh_passenger" depart="386.79" departLane="best">
        <route edges="943379996#9 7950797#0 7950797#1 7950797#2 7949246#0 7949246#1 7949246#2 -7950414#1"/>
    </vehicle>
    <vehicle id="veh97" type="veh_passenger" depart="390.82" departLane="best">
        <route edges="-7951468#4 -7951468#2 -7951468#1 -7951468#0 7945901 -764337089#7 -764337089#6 -764337089#3 -764337089#0 -943379996#11 -826346278#1 -826346278#0"/>
    </vehicle>
    <vehicle id="veh98" type="veh_passenger" depart="394.85" departLane="best">
        <route edges="-7949246#0 7947238#0 7947238#1 7947238#3 7947238#4 7947238#5 -7946927#3 -7946927#2 -7947245"/>
    </vehicle>
    <vehicle id="veh99" type="veh_passenger" depart="398.88" departLane="best">
        <route edges="7946977#0 7946977#1 -7951238 -826346274#0 -826346313#4 -826346313#3 -7947973"/>
    </vehicle>
    <vehicle id="veh100" type="veh_passenger" depart="402.91" departLane="best">
        <route edges="-7950356#1 -7951468#0 7945901 -764337089#7 -764337089#6 -764337089#3 -764337089#0 -943379996#11 -943379996#9 -943379996#8 -943379996#6 -943379996#5 -943379996#2 -943379988 -943379994#0 -222835485#5 -222835485#4 -7943815"/>
    </vehicle>
    <vehicle id="veh101" type="veh_passenger" depart="406.94" departLane="best">
        <route edges="-7949246#4 7951153#1 7951153#2 7951153#3 7951153#4 7951153#6 7951153#7 7951468#0 7951468#1 -7945099 764337089#13 764337089#16 943379995"/>
    </vehicle>
    <vehicle id="veh102" type="veh_passenger" depart="410.97" departLane="best" departSpeed="max">
        <route edges="-7948072#1 7949154#0"/>
    </vehicle>
    <vehicle id="veh103" type="veh_passenger" depart="415.00" departLane="best" departSpeed="max">
        <route edges="-7951167 7948077#0 7948077#1 -764337089#8 -764337089#7 -764337089#6 -764337089#3 -764337089#0 -943379996#11 -943379996#9 -943379996#8 -943379996#6"/>
    </vehicle>
    <vehicle id="veh104" type="veh_passenger" depart="419.03" departLane="best">
        <route edges="7951450#2 7951450#3 7951450#4 826346278#1 -943379996#9 -943379996#8 -943379996#6"/>
    </vehicle>
    <vehicle id="veh105" type="veh_passenger" depart="423.06" departLane="best" departSpeed="max">
        <route edges="-943379995 -764337089#16 -764337089#15 -764337089#12 -764337089#8 -764337089#7 -764337089#6 -764337089#3 -764337089#0 -943379996#11 -943379996#9 -943379996#8 7948315#0 7948315#1"/>
    </vehicle>
    <vehicle id="veh106" type="veh_passenger" depart="427.08" departLane="best" departSpeed="max">
        <route edges="-7947292#2 -7947292#1 -1022968381#2 -1022968381#0 -7946977#5 -7946977#4 -7950052"/>
    </vehicle>
    <vehicle id="veh107" type="veh_passenger" depart="431.11" departLane="best">
        <route edges="-7951468#4 -7951468#2 -7951468#1 -7951468#0 -7951153#9 -7951153#6 -7951153#5 -7951153#3 -7951153#2 -7951153#1 -7951153#0 7950714#0 7950714#1 7950714#2 1022968380 1022968381#0 1022968381#1 7947292#0 7947292#2"/>
    </vehicle>