<?xml version="1.0" encoding="UTF-8"?>

<!-- generated on 2025-04-23 22:19:11.402079 by randomTrips.py v1_22_0+0002-63e50f52594
<configuration>
    <net-file value="osm.net.xml.gz"/>
    <output-trip-file value="osm.passenger.trips.xml"/>
    <route-file value="osm.passenger.rou.xml"/>
    <prefix value="veh"/>
    <trip-attributes value="departLane=&quot;best&quot;"/>
    <fringe-start-attributes value="departSpeed=&quot;max&quot;"/>
    <vehicle-class value="passenger"/>
    <lanes value="True"/>
    <fringe-factor value="5"/>
    <allow-fringe.min-length value="1000.0"/>
    <via-edge-types value="highway.motorway,highway.motorway_link,highway.trunk_link,highway.primary_link,highway.secondary_link,highway.tertiary_link"/>
    <min-distance value="300.0"/>
    <min-distance.fringe value="10.0"/>
    <remove-loops value="True"/>
    <validate value="True"/>
    <insertion-density value="12.0"/>
</configuration>
-->

<!-- generated on 2025-04-23 22:19:11 by Eclipse SUMO duarouter Version 1.22.0
<duarouterConfiguration xmlns:xsi="http://www.w3.org/2001/XMLSchema-instance" xsi:noNamespaceSchemaLocation="http://sumo.dlr.de/xsd/duarouterConfiguration.xsd">

    <input>
        <net-file value="osm.net.xml.gz"/>
        <route-files value="osm.passenger.trips.xml"/>
    </input>

    <output>
        <output-file value="osm.passenger.trips.xml.tmp"/>
        <alternatives-output value="NUL"/>
        <write-trips value="true"/>
    </output>

    <processing>
        <remove-loops value="true"/>
    </processing>

    <time>
        <begin value="0.0"/>
        <end value="3600.0"/>
    </time>

    <report>
        <no-warnings value="true"/>
        <ignore-errors value="true"/>
        <no-step-log value="true"/>
    </report>

</duarouterConfiguration>
-->

<routes xmlns:xsi="http://www.w3.org/2001/XMLSchema-instance" xsi:noNamespaceSchemaLocation="http://sumo.dlr.de/xsd/routes_file.xsd">
    <vType id="veh_passenger" vClass="passenger" accel="1.7" decel="2.5" emergencyDecel="3.5" tau=".85" sigma="0.8" minGap="4.5" startupDelay="1.7" actionStepLength="2.0" carFollowModel="Krauss"/>
    <trip id="veh0" type="veh_passenger" depart="0.00" departLane="best" departSpeed="max" from="7944945" to="764337089#13"/>
    <trip id="veh1" type="veh_passenger" depart="4.03" departLane="best" departSpeed="max" from="-7948303" to="7948053#0"/>
    <trip id="veh2" type="veh_passenger" depart="8.06" departLane="best" departSpeed="max" from="7947245" to="7948047#3"/>
    <trip id="veh3" type="veh_passenger" depart="12.09" departLane="best" from="7950612#0" to="-7946146#0"/>
    <trip id="veh4" type="veh_passenger" depart="16.12" departLane="best" departSpeed="max" from="-7950638#1" to="-764337089#3"/>
    <trip id="veh5" type="veh_passenger" depart="20.15" departLane="best" departSpeed="max" from="-7947944" to="-7946444#0"/>
    <trip id="veh6" type="veh_passenger" depart="24.17" departLane="best" from="-764337089#8" to="7947657#2"/>
    <trip id="veh7" type="veh_passenger" depart="28.20" departLane="best" from="7945153" to="7947160"/>
    <trip id="veh8" type="veh_passenger" depart="32.23" departLane="best" departSpeed="max" from="-7947944" to="7947514#0"/>
    <trip id="veh9" type="veh_passenger" depart="36.26" departLane="best" from="7948076#2" to="107938636#0"/>
    <trip id="veh10" type="veh_passenger" depart="40.29" departLane="best" departSpeed="max" from="-7948861" to="7947238#4"/>
    <trip id="veh11" type="veh_passenger" depart="44.32" departLane="best" from="7951450#2" to="-7951153#1"/>
    <trip id="veh12" type="veh_passenger" depart="48.35" departLane="best" from="-7946927#2" to="-7946444#1"/>
    <trip id="veh13" type="veh_passenger" depart="52.38" departLane="best" from="7949225" to="7947568"/>
    <trip id="veh14" type="veh_passenger" depart="56.41" departLane="best" from="-7948072#0" to="7948347#0"/>
    <trip id="veh15" type="veh_passenger" depart="60.44" departLane="best" from="-826346313#4" to="902519806"/>
    <trip id="veh16" type="veh_passenger" depart="64.47" departLane="best" from="-7949246#3" to="7947238#13"/>
    <trip id="veh17" type="veh_passenger" depart="68.49" departLane="best" from="7948772#1" to="7947657#0"/>
    <trip id="veh18" type="veh_passenger" depart="72.52" departLane="best" from="7949266#0" to="7947292#2"/>
    <trip id="veh19" type="veh_passenger" depart="76.55" departLane="best" from="7946983#1" to="-7943107"/>
    <trip id="veh20" type="veh_passenger" depart="80.58" departLane="best" departSpeed="max" from="-7948036" to="-7949886#0"/>
    <trip id="veh21" type="veh_passenger" depart="84.61" departLane="best" from="7946444#1" to="-7948076#1"/>
    <trip id="veh22" type="veh_passenger" depart="88.64" departLane="best" from="7946977#4" to="-7949246#2"/>
    <trip id="veh23" type="veh_passenger" depart="92.67" departLane="best" from="7944853" to="-7951237#0"/>
    <trip id="veh24" type="veh_passenger" depart="96.70" departLane="best" from="-7949225" to="-7947973"/>
    <trip id="veh25" type="veh_passenger" depart="100.73" departLane="best" departSpeed="max" from="-7948072#1" to="7951468#5"/>
    <trip id="veh26" type="veh_passenger" depart="104.76" departLane="best" from="-7945136" to="7947568"/>
    <trip id="veh27" type="veh_passenger" depart="108.79" departLane="best" departSpeed="max" from="-7947568" to="7948347#0"/>
    <trip id="veh28" type="veh_passenger" depart="112.81" departLane="best" from="7947526#0" to="-7951450#0"/>
    <trip id="veh29" type="veh_passenger" depart="116.84" departLane="best" from="943379996#0" to="7947794#1"/>
    <trip id="veh30" type="veh_passenger" depart="120.87" departLane="best" departSpeed="max" from="-943379995" to="7948053#3"/>
    <trip id="veh31" type="veh_passenger" depart="124.90" departLane="best" from="7949031#0" to="7948861"/>
    <trip id="veh32" type="veh_passenger" depart="128.93" departLane="best" departSpeed="max" from="-7948036" to="-764337089#6"/>
    <trip id="veh33" type="veh_passenger" depart="132.96" departLane="best" departSpeed="max" from="-7948401" to="-7949031#0"/>
    <trip id="veh34" type="veh_passenger" depart="136.99" departLane="best" departSpeed="max" from="-7947794#1" to="7951511"/>
    <trip id="veh35" type="veh_passenger" depart="141.02" departLane="best" from="-7950080#2" to="-7950609#2"/>
    <trip id="veh36" type="veh_passenger" depart="145.05" departLane="best" from="7946146#0" to="-826346274#0"/>
    <trip id="veh37" type="veh_passenger" depart="149.08" departLane="best" from="7951153#3" to="7944964"/>
    <trip id="veh38" type="veh_passenger" depart="153.11" departLane="best" departSpeed="max" from="-7948072#1" to="-7948322#1"/>
    <trip id="veh39" type="veh_passenger" depart="157.13" departLane="best" from="943379996#0" to="-7948858#2"/>
    <trip id="veh40" type="veh_passenger" depart="161.16" departLane="best" departSpeed="max" from="222835485#0" to="7951178#3"/>
    <trip id="veh41" type="veh_passenger" depart="165.19" departLane="best" from="-7950080#2" to="7948047#0"/>
    <trip id="veh42" type="veh_passenger" depart="169.22" departLane="best" from="943379996#7" to="7946715#0"/>
    <trip id="veh43" type="veh_passenger" depart="173.25" departLane="best" from="-7946927#1" to="-7943107"/>
    <trip id="veh44" type="veh_passenger" depart="177.28" departLane="best" from="-7946983#3" to="7947657#3"/>
    <trip id="veh45" type="veh_passenger" depart="181.31" departLane="best" departSpeed="max" from="7947973" to="-943379996#6"/>
    <trip id="veh46" type="veh_passenger" depart="185.34" departLane="best" from="-7946146#2" to="-7951450#0"/>
    <trip id="veh47" type="veh_passenger" depart="189.37" departLane="best" from="943379996#6" to="-7946977#4"/>
    <trip id="veh48" type="veh_passenger" depart="193.40" departLane="best" from="7951533" to="7950714#1"/>
    <trip id="veh49" type="veh_passenger" depart="197.43" departLane="best" from="-458788170" to="7948315#8"/>
    <trip id="veh50" type="veh_passenger" depart="201.45" departLane="best" departSpeed="max" from="7946723#0" to="7946983#2"/>
    <trip id="veh51" type="veh_passenger" depart="205.48" departLane="best" departSpeed="max" from="-7948072#1" to="7947794#1"/>
    <trip id="veh52" type="veh_passenger" depart="209.51" departLane="best" from="-7946983#4" to="-222835485#4"/>
    <trip id="veh53" type="veh_passenger" depart="213.54" departLane="best" departSpeed="max" from="-7951167" to="7945429"/>
    <trip id="veh54" type="veh_passenger" depart="217.57" departLane="best" from="-7950080#2" to="-7948858#2"/>
    <trip id="veh55" type="veh_passenger" depart="221.60" departLane="best" departSpeed="max" from="-7951468#5" to="-7947526#0"/>
    <trip id="veh56" type="veh_passenger" depart="225.63" departLane="best" from="7951153#2" to="-7950797#1"/>
    <trip id="veh57" type="veh_passenger" depart="229.66" departLane="best" departSpeed="max" from="-7948347#1" to="7947794#1"/>
    <trip id="veh58" type="veh_passenger" depart="233.69" departLane="best" departSpeed="max" from="7942627" to="-7947238#2"/>
    <trip id="veh59" type="veh_passenger" depart="237.72" departLane="best" from="-7951153#9" to="7946983#4"/>
    <trip id="veh60" type="veh_passenger" depart="241.75" departLane="best" from="7947794#0" to="-7946977#4"/>
    <trip id="veh61" type="veh_passenger" depart="245.77" departLane="best" from="-1022968380" to="-7950714#2"/>
    <trip id="veh62" type="veh_passenger" depart="249.80" departLane="best" from="-764337089#16" to="7951468#1"/>
    <trip id="veh63" type="veh_passenger" depart="253.83" departLane="best" from="7950414#0" to="7950080#0"/>
    <trip id="veh64" type="veh_passenger" depart="257.86" departLane="best" departSpeed="max" from="-7948371" to="-7943815"/>
    <trip id="veh65" type="veh_passenger" depart="261.89" departLane="best" from="-7950356#1" to="7951511"/>
    <trip id="veh66" type="veh_passenger" depart="265.92" departLane="best" from="7946715#2" to="7946146#0"/>
    <trip id="veh67" type="veh_passenger" depart="269.95" departLane="best" departSpeed="max" from="-7946422#1" to="7948772#2"/>
    <trip id="veh68" type="veh_passenger" depart="273.98" departLane="best" from="-7947573#1" to="-7946977#4"/>
    <trip id="veh69" type="veh_passenger" depart="278.01" departLane="best" departSpeed="max" from="-7951229#2" to="-7947238#2"/>
    <trip id="veh70" type="veh_passenger" depart="282.04" departLane="best" departSpeed="max" from="-7948072#1" to="7950797#2"/>
    <trip id="veh71" type="veh_passenger" depart="286.07" departLane="best" departSpeed="max" from="-7950638#1" to="-7947973"/>
    <trip id="veh72" type="veh_passenger" depart="290.09" departLane="best" departSpeed="max" from="-902519806" to="7948347#0"/>
    <trip id="veh73" type="veh_passenger" depart="294.12" departLane="best" from="-7947779#3" to="7950459"/>
    <trip id="veh74" type="veh_passenger" depart="298.15" departLane="best" from="943379996#6" to="7947840"/>
    <trip id="veh75" type="veh_passenger" depart="302.18" departLane="best" from="-7950797#1" to="7946927#0"/>
    <trip id="veh76" type="veh_passenger" depart="306.21" departLane="best" from="-7947238#12" to="-7948053#2"/>
    <trip id="veh77" type="veh_passenger" depart="310.24" departLane="best" departSpeed="max" from="-7948861" to="7947514#0"/>
    <trip id="veh78" type="veh_passenger" depart="314.27" departLane="best" departSpeed="max" from="-7948036" to="-7948052"/>
    <trip id="veh79" type="veh_passenger" depart="318.30" departLane="best" departSpeed="max" from="-7946422#1" to="7947657#3"/>
    <trip id="veh80" type="veh_passenger" depart="322.33" departLane="best" departSpeed="max" from="-7948036" to="7951229#1"/>
    <trip id="veh81" type="veh_passenger" depart="326.36" departLane="best" from="-7949246#7" to="-7944945"/>
    <trip id="veh82" type="veh_passenger" depart="330.39" departLane="best" departSpeed="max" from="-7947794#1" to="-7946983#1"/>
    <trip id="veh83" type="veh_passenger" depart="334.41" departLane="best" departSpeed="max" from="7951237#0" to="7947261"/>
    <trip id="veh84" type="veh_passenger" depart="338.44" departLane="best" from="-7951229#0" to="7949154#0"/>
    <trip id="veh85" type="veh_passenger" depart="342.47" departLane="best" from="7946977#1" to="1022968381#1"/>
    <trip id="veh86" type="veh_passenger" depart="346.50" departLane="best" departSpeed="max" from="-7950638#1" to="7945099"/>
    <trip id="veh87" type="veh_passenger" depart="350.53" departLane="best" from="7947238#5" to="7948047#3"/>
    <trip id="veh88" type="veh_passenger" depart="354.56" departLane="best" from="826346313#5" to="-7946444#2"/>
    <trip id="veh89" type="veh_passenger" depart="358.59" departLane="best" from="-7950414#0" to="7951153#3"/>
    <trip id="veh90" type="veh_passenger" depart="362.62" departLane="best" from="7949266#0" to="-7948372"/>
    <trip id="veh91" type="veh_passenger" depart="366.65" departLane="best" from="-7947657#2" to="764337089#8"/>
    <trip id="veh92" type="veh_passenger" depart="370.68" departLane="best" departSpeed="max" from="-7950638#1" to="-7949246#2"/>
    <trip id="veh93" type="veh_passenger" depart="374.71" departLane="best" from="-7948053#0" to="-7951450#3"/>
    <trip id="veh94" type="veh_passenger" depart="378.73" departLane="best" from="-7951153#1" to="7950714#1"/>
    <trip id="veh95" type="veh_passenger" depart="382.76" departLane="best" departSpeed="max" from="-943379995" to="-7943107"/>
    <trip id="veh96" type="veh_passenger" depart="386.79" departLane="best" from="943379996#9" to="-7950414#1"/>
    <trip id="veh97" type="veh_passenger" depart="390.82" departLane="best" from="-7951468#4" to="-826346278#0"/>
    <trip id="veh98" type="veh_passenger" depart="394.85" departLane="best" from="-7949246#0" to="-7947245"/>
    <trip id="veh99" type="veh_passenger" depart="398.88" departLane="best" from="7946977#0" to="-7947973"/>
    <trip id="veh100" type="veh_passenger" depart="402.91" departLane="best" from="-7950356#1" to="-7943815"/>
    <trip id="veh101" type="veh_passenger" depart="406.94" departLane="best" from="-7949246#4" to="943379995"/>
    <trip id="veh102" type="veh_passenger" depart="410.97" departLane="best" departSpeed="max" from="-7948072#1" to="7949154#0"/>
    <trip id="veh103" type="veh_passenger" depart="415.00" departLane="best" departSpeed="max" from="-7951167" to="-943379996#6"/>
    <trip id="veh104" type="veh_passenger" depart="419.03" departLane="best" from="7951450#2" to="-943379996#6"/>
    <trip id="veh105" type="veh_passenger" depart="423.06" departLane="best" departSpeed="max" from="-943379995" to="7948315#1"/>
    <trip id="veh106" type="veh_passenger" depart="427.08" departLane="best" departSpeed="max" from="-7947292#2" to="-7950052"/>
    <trip id="veh107" type="veh_passenger" depart="431.11" departLane="best" from="-7951468#4" to="7947292#2"/>
    <trip id="veh108" type="veh_passenger" depart="435.14" departLane="best" departSpeed="max" from="-902519806" to="7948401"/>
    <trip id="veh109" type="veh_passenger" depart="439.17" departLane="best" from="-7945901" to="7947481"/>
    <trip id="veh110" type="veh_passenger" depart="443.20" departLane="best" departSpeed="max" from="-7951468#5" to="7950638#0"/>
    <trip id="veh111" type="veh_passenger" depart="447.23" departLane="best" from="-7947507" to="826346274#6"/>
    <trip id="veh112" type="veh_passenger" depart="451.26" departLane="best" from="7946444#1" to="-7947526#3"/>
    <trip id="veh113" type="veh_passenger" depart="455.29" departLane="best" from="-764337089#16" to="7948047#3"/>
    <trip id="veh114" type="veh_passenger" depart="459.32" departLane="best" departSpeed="max" from="-7948036" to="-7946927#3"/>
    <trip id="veh115" type="veh_passenger" depart="463.35" departLane="best" from="-764337089#15" to="-7951153#2"/>
    <trip id="veh116" type="veh_passenger" depart="467.38" departLane="best" departSpeed="max" from="-7950638#1" to="7947292#2"/>
    <trip id="veh117" type="veh_passenger" depart="471.40" departLane="best" from="-7945429" to="7951468#5"/>
    <trip id="veh118" type="veh_passenger" depart="475.43" departLane="best" from="-7947794#0" to="7948315#0"/>
    <trip id="veh119" type="veh_passenger" depart="479.46" departLane="best" departSpeed="max" from="-7948047#3" to="-826346274#0"/>
    <trip id="veh120" type="veh_passenger" depart="483.49" departLane="best" from="7946715#2" to="-7950052"/>
    <trip id="veh121" type="veh_passenger" depart="487.52" departLane="best" departSpeed="max" from="-7946422#1" to="7944964"/>
    <trip id="veh122" type="veh_passenger" depart="491.55" departLane="best" departSpeed="max" from="-7946422#1" to="-7947973"/>
    <trip id="veh123" type="veh_passenger" depart="495.58" departLane="best" departSpeed="max" from="-7948072#1" to="7951468#3"/>
    <trip id="veh124" type="veh_passenger" depart="499.61" departLane="best" from="7950414#1" to="7951153#3"/>
    <trip id="veh125" type="veh_passenger" depart="503.64" departLane="best" departSpeed="max" from="-7949221" to="-7947238#5"/>
    <trip id="veh126" type="veh_passenger" depart="507.67" departLane="best" from="7948784#0" to="-7948076#2"/>
    <trip id="veh127" type="veh_passenger" depart="511.70" departLane="best" departSpeed="max" from="7942627" to="943379995"/>
    <trip id="veh128" type="veh_passenger" depart="515.72" departLane="best" from="7945901" to="-222835485#0"/>
    <trip id="veh129" type="veh_passenger" depart="519.75" departLane="best" from="7948315#1" to="-7950052"/>
    <trip id="veh130" type="veh_passenger" depart="523.78" departLane="best" from="7946422#0" to="7951468#5"/>
    <trip id="veh131" type="veh_passenger" depart="527.81" departLane="best" from="-7947238#9" to="-7946927#0"/>
    <trip id="veh132" type="veh_passenger" depart="531.84" departLane="best" from="-7946983#1" to="7947238#13"/>
    <trip id="veh133" type="veh_passenger" depart="535.87" departLane="best" from="7948077#0" to="7947568"/>
    <trip id="veh134" type="veh_passenger" depart="539.90" departLane="best" from="-7947238#0" to="-7947794#0"/>
    <trip id="veh135" type="veh_passenger" depart="543.93" departLane="best" from="7944853" to="-7948858#2"/>
    <trip id="veh136" type="veh_passenger" depart="547.96" departLane="best" from="-7951303" to="7951229#0"/>
    <trip id="veh137" type="veh_passenger" depart="551.99" departLane="best" from="7949031#2" to="-7946205"/>
    <trip id="veh138" type="veh_passenger" depart="556.02" departLane="best" departSpeed="max" from="-7950638#1" to="-7949246#1"/>
    <trip id="veh139" type="veh_passenger" depart="560.04" departLane="best" from="-1022968381#0" to="7948861"/>
    <trip id="veh140" type="veh_passenger" depart="564.07" departLane="best" departSpeed="max" from="7944945" to="-7948858#1"/>
    <trip id="veh141" type="veh_passenger" depart="568.10" departLane="best" departSpeed="max" from="7947245" to="7947238#10"/>
    <trip id="veh142" type="veh_passenger" depart="572.13" departLane="best" from="-7950714#0" to="-222835485#0"/>
    <trip id="veh143" type="veh_passenger" depart="576.16" departLane="best" departSpeed="max" from="-7946422#1" to="7951153#6"/>
    <trip id="veh144" type="veh_passenger" depart="580.19" departLane="best" from="7950797#0" to="7947160"/>
    <trip id="veh145" type="veh_passenger" depart="584.22" departLane="best" from="7948858#0" to="7947292#2"/>
    <trip id="veh146" type="veh_passenger" depart="588.25" departLane="best" departSpeed="max" from="-7947292#2" to="-7946977#4"/>
    <trip id="veh147" type="veh_passenger" depart="592.28" departLane="best" departSpeed="max" from="-7948371" to="-7951178#4"/>
    <trip id="veh148" type="veh_passenger" depart="596.31" departLane="best" from="7950714#2" to="-7947973"/>
    <trip id="veh149" type="veh_passenger" depart="600.34" departLane="best" from="-7948053#0" to="-7946715#3"/>
    <trip id="veh150" type="veh_passenger" depart="604.36" departLane="best" from="7947794#0" to="7951153#7"/>
    <trip id="veh151" type="veh_passenger" depart="608.39" departLane="best" departSpeed="max" from="-7947292#2" to="7951468#1"/>
    <trip id="veh152" type="veh_passenger" depart="612.42" departLane="best" from="7949886#0" to="902519806"/>
    <trip id="veh153" type="veh_passenger" depart="616.45" departLane="best" from="7948077#0" to="-7951153#5"/>
    <trip id="veh154" type="veh_passenger" depart="620.48" departLane="best" from="764337089#7" to="7948371"/>
    <trip id="veh155" type="veh_passenger" depart="624.51" departLane="best" from="-7948858#1" to="7951468#2"/>
    <trip id="veh156" type="veh_passenger" depart="628.54" departLane="best" from="7948056#0" to="7950714#2"/>
    <trip id="veh157" type="veh_passenger" depart="632.57" departLane="best" from="7948077#0" to="-7949031#0"/>
    <trip id="veh158" type="veh_passenger" depart="636.60" departLane="best" departSpeed="max" from="7947973" to="-7946723#0"/>
    <trip id="veh159" type="veh_passenger" depart="640.63" departLane="best" departSpeed="max" from="7950052" to="7950638#0"/>
    <trip id="veh160" type="veh_passenger" depart="644.66" departLane="best" departSpeed="max" from="-7947944" to="7949266#0"/>
    <trip id="veh161" type="veh_passenger" depart="648.68" departLane="best" departSpeed="max" from="-7951167" to="-7950414#0"/>
    <trip id="veh162" type="veh_passenger" depart="652.71" departLane="best" from="7948052" to="-7948056#0"/>
    <trip id="veh163" type="veh_passenger" depart="656.74" departLane="best" from="-764337089#7" to="7947641"/>
    <trip id="veh164" type="veh_passenger" depart="660.77" departLane="best" from="-7948772#2" to="7950786#0"/>
    <trip id="veh165" type="veh_passenger" depart="664.80" departLane="best" from="-7951468#2" to="-7949246#3"/>
    <trip id="veh166" type="veh_passenger" depart="668.83" departLane="best" departSpeed="max" from="7944945" to="-826346274#2"/>
    <trip id="veh167" type="veh_passenger" depart="672.86" departLane="best" from="826346278#1" to="7946983#2"/>
    <trip id="veh168" type="veh_passenger" depart="676.89" departLane="best" departSpeed="max" from="7951237#0" to="-7946927#0"/>
    <trip id="veh169" type="veh_passenger" depart="680.92" departLane="best" from="7951533" to="-7947514#0"/>
    <trip id="veh170" type="veh_passenger" depart="684.95" departLane="best" from="-7951468#0" to="-7948933"/>
    <trip id="veh171" type="veh_passenger" depart="688.98" departLane="best" from="-7946983#2" to="-222835485#4"/>
    <trip id="veh172" type="veh_passenger" depart="693.00" departLane="best" from="-7947238#4" to="-7950607"/>
    <trip id="veh173" type="veh_passenger" depart="697.03" departLane="best" departSpeed="max" from="7942627" to="-7946715#3"/>
    <trip id="veh174" type="veh_passenger" depart="701.06" departLane="best" from="-7949266#0" to="7947292#2"/>
    <trip id="veh175" type="veh_passenger" depart="705.09" departLane="best" from="-7948056#0" to="7948303"/>
    <trip id="veh176" type="veh_passenger" depart="709.12" departLane="best" from="-1022968380" to="-826346278#0"/>
    <trip id="veh177" type="veh_passenger" depart="713.15" departLane="best" departSpeed="max" from="-902519806" to="-7948315#6"/>
    <trip id="veh178" type="veh_passenger" depart="717.18" departLane="best" departSpeed="max" from="7947245" to="7948047#3"/>
    <trip id="veh179" type="veh_passenger" depart="721.21" departLane="best" departSpeed="max" from="-7949221" to="-7944945"/>
    <trip id="veh180" type="veh_passenger" depart="725.24" departLane="best" from="7946422#0" to="-7950797#0"/>
    <trip id="veh181" type="veh_passenger" depart="729.27" departLane="best" departSpeed="max" from="-7948401" to="7950612#0"/>
    <trip id="veh182" type="veh_passenger" depart="733.30" departLane="best" from="-7947238#12" to="-7950080#2"/>
    <trip id="veh183" type="veh_passenger" depart="737.32" departLane="best" departSpeed="max" from="-7948371" to="-826346278#1"/>
    <trip id="veh184" type="veh_passenger" depart="741.35" departLane="best" from="-7950414#0" to="-7950052"/>
    <trip id="veh185" type="veh_passenger" depart="745.38" departLane="best" from="-7947238#3" to="-943379996#5"/>
    <trip id="veh186" type="veh_passenger" depart="749.41" departLane="best" departSpeed="max" from="7951237#0" to="7948047#3"/>
    <trip id="veh187" type="veh_passenger" depart="753.44" departLane="best" from="7950786#1" to="7947573#2"/>
    <trip id="veh188" type="veh_passenger" depart="757.47" departLane="best" departSpeed="max" from="-7948347#1" to="-7947238#0"/>
    <trip id="veh189" type="veh_passenger" depart="761.50" departLane="best" from="-1022968380" to="-7949266#0"/>
    <trip id="veh190" type="veh_passenger" depart="765.53" departLane="best" from="7950714#1" to="7947292#2"/>
    <trip id="veh191" type="veh_passenger" depart="769.56" departLane="best" from="-7945901" to="7944964"/>
    <trip id="veh192" type="veh_passenger" depart="773.59" departLane="best" from="-7951153#0" to="-7947973"/>
    <trip id="veh193" type="veh_passenger" depart="777.62" departLane="best" from="-7951229#0" to="7951178#5"/>
    <trip id="veh194" type="veh_passenger" depart="781.64" departLane="best" from="7948052" to="-7947245"/>
    <trip id="veh195" type="veh_passenger" depart="785.67" departLane="best" from="7946715#2" to="-826346313#3"/>
    <trip id="veh196" type="veh_passenger" depart="789.70" departLane="best" from="7944741#0" to="-7951153#0"/>
    <trip id="veh197" type="veh_passenger" depart="793.73" departLane="best" from="-7948315#8" to="7948401"/>
    <trip id="veh198" type="veh_passenger" depart="797.76" departLane="best" from="7946715#2" to="7948053#1"/>
    <trip id="veh199" type="veh_passenger" depart="801.79" departLane="best" departSpeed="max" from="-7947657#4" to="-764337089#12"/>
    <trip id="veh200" type="veh_passenger" depart="805.82" departLane="best" departSpeed="max" from="-7948047#3" to="7945324#1"/>
    <trip id="veh201" type="veh_passenger" depart="809.85" departLane="best" from="7949246#0" to="-7944945"/>
    <trip id="veh202" type="veh_passenger" depart="813.88" departLane="best" from="-7950612#0" to="7947657#3"/>
    <trip id="veh203" type="veh_passenger" depart="817.91" departLane="best" departSpeed="max" from="-7947657#4" to="7948072#1"/>
    <trip id="veh204" type="veh_passenger" depart="821.94" departLane="best" from="-7951468#0" to="-7948315#8"/>
    <trip id="veh205" type="veh_passenger" depart="825.96" departLane="best" from="7946146#0" to="107938636#0"/>
    <trip id="veh206" type="veh_passenger" depart="829.99" departLane="best" from="7947526#0" to="7948861"/>
    <trip id="veh207" type="veh_passenger" depart="834.02" departLane="best" from="-7946983#1" to="-943379996#9"/>
    <trip id="veh208" type="veh_passenger" depart="838.05" departLane="best" departSpeed="max" from="-7947568" to="-826346274#3"/>
    <trip id="veh209" type="veh_passenger" depart="842.08" departLane="best" from="-7951533" to="-7943107"/>
    <trip id="veh210" type="veh_passenger" depart="846.11" departLane="best" from="-7948053#0" to="-7950612#1"/>
    <trip id="veh211" type="veh_passenger" depart="850.14" departLane="best" from="7946444#1" to="943379995"/>
    <trip id="veh212" type="veh_passenger" depart="854.17" departLane="best" from="-764337089#16" to="7951511"/>
    <trip id="veh213" type="veh_passenger" depart="858.20" departLane="best" from="7950612#0" to="7947573#1"/>
    <trip id="veh214" type="veh_passenger" depart="862.23" departLane="best" from="7947238#1" to="-7946444#0"/>
    <trip id="veh215" type="veh_passenger" depart="866.26" departLane="best" from="7948772#2" to="7947238#0"/>
    <trip id="veh216" type="veh_passenger" depart="870.28" departLane="best" from="-7950714#1" to="7948372"/>
    <trip id="veh217" type="veh_passenger" depart="874.31" departLane="best" departSpeed="max" from="-7951229#2" to="-7948858#0"/>
    <trip id="veh218" type="veh_passenger" depart="878.34" departLane="best" from="-7948052" to="7947794#1"/>
    <trip id="veh219" type="veh_passenger" depart="882.37" departLane="best" from="-7947573#1" to="-7946927#2"/>
    <trip id="veh220" type="veh_passenger" depart="886.40" departLane="best" departSpeed="max" from="7943815" to="7949246#0"/>
    <trip id="veh221" type="veh_passenger" depart="890.43" departLane="best" from="7946444#0" to="-7949266#0"/>
    <trip id="veh222" type="veh_passenger" depart="894.46" departLane="best" from="7948077#0" to="7950714#0"/>
    <trip id="veh223" type="veh_passenger" depart="898.49" departLane="best" departSpeed="max" from="-902519806" to="-7946983#4"/>
    <trip id="veh224" type="veh_passenger" depart="902.52" departLane="best" departSpeed="max" from="-7948036" to="7948072#1"/>
    <trip id="veh225" type="veh_passenger" depart="906.55" departLane="best" from="7946983#2" to="-7951450#2"/>
    <trip id="veh226" type="veh_passenger" depart="910.58" departLane="best" from="-7950414#3" to="7946983#6"/>
    <trip id="veh227" type="veh_passenger" depart="914.60" departLane="best" from="-7950612#0" to="-7947812"/>
    <trip id="veh228" type="veh_passenger" depart="918.63" departLane="best" departSpeed="max" from="-7950638#1" to="7951229#0"/>
    <trip id="veh229" type="veh_passenger" depart="922.66" departLane="best" departSpeed="max" from="222835485#0" to="7948072#1"/>
    <trip id="veh230" type="veh_passenger" depart="926.69" departLane="best" from="-7949031#2" to="7948401"/>
    <trip id="veh231" type="veh_passenger" depart="930.72" departLane="best" from="7949246#2" to="7951533"/>
    <trip id="veh232" type="veh_passenger" depart="934.75" departLane="best" departSpeed="max" from="-7950638#1" to="7948401"/>
    <trip id="veh233" type="veh_passenger" depart="938.78" departLane="best" departSpeed="max" from="-902519806" to="7947568"/>
    <trip id="veh234" type="veh_passenger" depart="942.81" departLane="best" departSpeed="max" from="-7947944" to="7948047#0"/>
    <trip id="veh235" type="veh_passenger" depart="946.84" departLane="best" from="-7950797#0" to="764337089#1"/>
    <trip id="veh236" type="veh_passenger" depart="950.87" departLane="best" departSpeed="max" from="-7948861" to="7948052"/>